
     RDKit          3D

 31 34  0  0  0  0  0  0  0  0999 V2000
   17.9659   28.3449  196.0380 C   0  0  0  0  0  0  0  0  0  0  0  0
   19.3038   27.7662  196.4614 C   0  0  0  0  0  0  0  0  0  0  0  0
   19.6194   28.1501  197.7425 O   0  0  0  0  0  0  0  0  0  0  0  0
   18.7179   28.9857  198.3501 C   0  0  0  0  0  0  0  0  0  0  0  0
   17.2902   28.4874  198.2901 C   0  0  0  0  0  0  0  0  0  0  0  0
   16.9670   27.9295  196.9966 N   0  0  0  0  0  4  0  0  0  0  0  0
   15.6670   28.3868  196.5922 C   0  0  0  0  0  0  0  0  0  0  0  0
   14.5744   28.0329  197.5735 C   0  0  0  0  0  0  0  0  0  0  0  0
   13.5734   27.1468  196.8454 C   0  0  0  0  0  0  0  0  0  0  0  0
   12.4156   27.8781  196.5909 O   0  0  0  0  0  0  0  0  0  0  0  0
   11.1732   27.3714  196.3338 C   0  0  0  0  0  0  0  0  0  0  0  0
   10.0808   28.0318  196.8551 C   0  0  0  0  0  0  0  0  0  0  0  0
    8.8122   27.5452  196.6140 C   0  0  0  0  0  0  0  0  0  0  0  0
   10.2793   29.1880  197.6220 O   0  0  0  0  0  0  0  0  0  0  0  0
    9.2608   30.1694  197.6233 C   0  0  0  0  0  0  0  0  0  0  0  0
   10.9388   26.2259  195.5763 C   0  0  0  0  0  0  0  0  0  0  0  0
    9.6678   25.7490  195.3418 C   0  0  0  0  0  0  0  0  0  0  0  0
    8.5793   26.4033  195.8589 C   0  0  0  0  0  0  0  0  0  0  0  0
    7.3357   25.9437  195.6362 N   0  0  0  0  0  0  0  0  0  0  0  0
    7.0926   24.8396  194.9094 C   0  0  0  0  0  0  0  0  0  0  0  0
    8.1435   24.2008  194.4053 N   0  0  0  0  0  0  0  0  0  0  0  0
    9.4293   24.6028  194.5860 C   0  0  0  0  0  0  0  0  0  0  0  0
   10.5037   23.8967  194.0033 N   0  0  0  0  0  0  0  0  0  0  0  0
   10.2985   22.8667  193.0585 C   0  0  0  0  0  0  0  0  0  0  0  0
    9.4355   22.9739  192.0035 C   0  0  0  0  0  0  0  0  0  0  0  0
    9.2727   21.9363  191.0783 C   0  0  0  0  0  0  0  0  0  0  0  0
    8.1596   22.0874  189.7257 Cl  0  0  0  0  0  0  0  0  0  0  0  0
    9.9762   20.7624  191.1937 C   0  0  0  0  0  0  0  0  0  0  0  0
    9.8216   19.7549  190.2998 F   0  0  0  0  0  0  0  0  0  0  0  0
   10.8478   20.6381  192.2494 C   0  0  0  0  0  0  0  0  0  0  0  0
   11.0069   21.6579  193.1569 C   0  0  0  0  0  0  0  0  0  0  0  0
 20 19  2  0
 20 21  1  0
 18 13  1  0
 18 17  2  0
 18 19  1  0
 17 16  1  0
 17 22  1  0
 22 21  2  0
 22 23  1  0
 15 14  1  0
 30 28  1  0
 30 31  2  0
 31 24  1  0
 25 24  2  0
 25 26  1  0
 13 12  2  0
 16 11  2  0
  8  7  1  0
  8  9  1  0
  9 10  1  0
  2  1  1  0
  2  3  1  0
  4  3  1  0
  4  5  1  0
  7  6  1  0
  1  6  1  0
  5  6  1  0
 28 26  2  0
 28 29  1  0
 26 27  1  0
 24 23  1  0
 12 11  1  0
 12 14  1  0
 11 10  1  0
M  CHG  1   6   1
M  END
$$$$
