
     RDKit          3D

 31 34  0  0  0  0  0  0  0  0999 V2000
   17.5299   28.8187  197.8454 C   0  0  0  0  0  0  0  0  0  0  0  0
   18.4361   29.8284  198.5262 C   0  0  0  0  0  0  0  0  0  0  0  0
   19.0214   30.6609  197.6029 O   0  0  0  0  0  0  0  0  0  0  0  0
   18.7178   30.3987  196.2917 C   0  0  0  0  0  0  0  0  0  0  0  0
   17.2332   30.2810  196.0228 C   0  0  0  0  0  0  0  0  0  0  0  0
   16.5535   29.5401  197.0611 N   0  0  0  0  0  4  0  0  0  0  0  0
   15.6214   28.6265  196.4617 C   0  0  0  0  0  0  0  0  0  0  0  0
   14.7101   27.9561  197.4626 C   0  0  0  0  0  0  0  0  0  0  0  0
   13.7042   27.1229  196.6808 C   0  0  0  0  0  0  0  0  0  0  0  0
   12.5397   27.8650  196.4980 O   0  0  0  0  0  0  0  0  0  0  0  0
   11.3102   27.3783  196.1545 C   0  0  0  0  0  0  0  0  0  0  0  0
   10.1948   28.0487  196.6099 C   0  0  0  0  0  0  0  0  0  0  0  0
    8.9385   27.5823  196.2809 C   0  0  0  0  0  0  0  0  0  0  0  0
   10.3578   29.1944  197.4006 O   0  0  0  0  0  0  0  0  0  0  0  0
    9.1969   29.8862  197.8181 C   0  0  0  0  0  0  0  0  0  0  0  0
   11.1110   26.2436  195.3709 C   0  0  0  0  0  0  0  0  0  0  0  0
    9.8519   25.7869  195.0485 C   0  0  0  0  0  0  0  0  0  0  0  0
    8.7406   26.4512  195.4999 C   0  0  0  0  0  0  0  0  0  0  0  0
    7.5083   26.0112  195.1912 N   0  0  0  0  0  0  0  0  0  0  0  0
    7.2989   24.9178  194.4381 C   0  0  0  0  0  0  0  0  0  0  0  0
    8.3721   24.2694  193.9973 N   0  0  0  0  0  0  0  0  0  0  0  0
    9.6484   24.6516  194.2663 C   0  0  0  0  0  0  0  0  0  0  0  0
   10.7493   23.9363  193.7479 N   0  0  0  0  0  0  0  0  0  0  0  0
   10.6205   23.0542  192.6520 C   0  0  0  0  0  0  0  0  0  0  0  0
    9.6894   23.2125  191.6636 C   0  0  0  0  0  0  0  0  0  0  0  0
    9.6047   22.3256  190.5841 C   0  0  0  0  0  0  0  0  0  0  0  0
    8.4025   22.5411  189.3194 Cl  0  0  0  0  0  0  0  0  0  0  0  0
   10.4574   21.2546  190.4739 C   0  0  0  0  0  0  0  0  0  0  0  0
   10.3788   20.3931  189.4300 F   0  0  0  0  0  0  0  0  0  0  0  0
   11.3994   21.0805  191.4598 C   0  0  0  0  0  0  0  0  0  0  0  0
   11.4815   21.9525  192.5190 C   0  0  0  0  0  0  0  0  0  0  0  0
 20 19  2  0
 20 21  1  0
 18 13  1  0
 18 17  2  0
 18 19  1  0
 17 16  1  0
 17 22  1  0
 22 21  2  0
 22 23  1  0
 15 14  1  0
 30 28  1  0
 30 31  2  0
 31 24  1  0
 25 24  2  0
 25 26  1  0
 13 12  2  0
 16 11  2  0
  8  7  1  0
  8  9  1  0
  9 10  1  0
  2  1  1  0
  2  3  1  0
  4  3  1  0
  4  5  1  0
  7  6  1  0
  1  6  1  0
  5  6  1  0
 28 26  2  0
 28 29  1  0
 26 27  1  0
 24 23  1  0
 12 11  1  0
 12 14  1  0
 11 10  1  0
M  CHG  1   6   1
M  END
$$$$
