
     RDKit          3D

 31 34  0  0  0  0  0  0  0  0999 V2000
   17.2873   28.8434  195.9527 C   0  0  0  0  0  0  0  0  0  0  0  0
   18.7281   28.7597  196.4229 C   0  0  0  0  0  0  0  0  0  0  0  0
   18.9708   29.6725  197.4209 O   0  0  0  0  0  0  0  0  0  0  0  0
   17.9147   30.4809  197.7546 C   0  0  0  0  0  0  0  0  0  0  0  0
   16.6351   29.7241  198.0378 C   0  0  0  0  0  0  0  0  0  0  0  0
   16.4240   28.6488  197.0955 N   0  0  0  0  0  4  0  0  0  0  0  0
   15.0477   28.6388  196.6851 C   0  0  0  0  0  0  0  0  0  0  0  0
   14.6555   27.3903  195.9307 C   0  0  0  0  0  0  0  0  0  0  0  0
   13.3130   26.9262  196.4783 C   0  0  0  0  0  0  0  0  0  0  0  0
   12.2936   27.6489  195.8629 O   0  0  0  0  0  0  0  0  0  0  0  0
   11.0181   27.2190  195.6293 C   0  0  0  0  0  0  0  0  0  0  0  0
    9.9775   27.9487  196.1641 C   0  0  0  0  0  0  0  0  0  0  0  0
    8.6774   27.5406  195.9468 C   0  0  0  0  0  0  0  0  0  0  0  0
   10.2601   29.0944  196.9203 O   0  0  0  0  0  0  0  0  0  0  0  0
    9.3340   30.1628  196.8822 C   0  0  0  0  0  0  0  0  0  0  0  0
   10.7006   26.0862  194.8830 C   0  0  0  0  0  0  0  0  0  0  0  0
    9.3987   25.6880  194.6723 C   0  0  0  0  0  0  0  0  0  0  0  0
    8.3616   26.4113  195.2028 C   0  0  0  0  0  0  0  0  0  0  0  0
    7.0884   26.0286  195.0033 N   0  0  0  0  0  0  0  0  0  0  0  0
    6.7653   24.9379  194.2876 C   0  0  0  0  0  0  0  0  0  0  0  0
    7.7660   24.2324  193.7705 N   0  0  0  0  0  0  0  0  0  0  0  0
    9.0771   24.5548  193.9277 C   0  0  0  0  0  0  0  0  0  0  0  0
   10.0957   23.7802  193.3321 N   0  0  0  0  0  0  0  0  0  0  0  0
    9.8179   22.8092  192.3444 C   0  0  0  0  0  0  0  0  0  0  0  0
   10.3747   21.5606  192.3386 C   0  0  0  0  0  0  0  0  0  0  0  0
   10.0605   20.6198  191.3509 C   0  0  0  0  0  0  0  0  0  0  0  0
   10.7836   19.0172  191.3555 Cl  0  0  0  0  0  0  0  0  0  0  0  0
    9.1763   20.9147  190.3423 C   0  0  0  0  0  0  0  0  0  0  0  0
    8.8691   20.0065  189.3837 F   0  0  0  0  0  0  0  0  0  0  0  0
    8.6077   22.1662  190.3331 C   0  0  0  0  0  0  0  0  0  0  0  0
    8.9170   23.0888  191.3037 C   0  0  0  0  0  0  0  0  0  0  0  0
 20 19  2  0
 20 21  1  0
 18 13  1  0
 18 17  2  0
 18 19  1  0
 17 16  1  0
 17 22  1  0
 22 21  2  0
 22 23  1  0
 15 14  1  0
 30 28  1  0
 30 31  2  0
 31 24  1  0
 25 24  2  0
 25 26  1  0
 13 12  2  0
 16 11  2  0
  8  7  1  0
  8  9  1  0
  9 10  1  0
  2  1  1  0
  2  3  1  0
  4  3  1  0
  4  5  1  0
  7  6  1  0
  1  6  1  0
  5  6  1  0
 28 26  2  0
 28 29  1  0
 26 27  1  0
 24 23  1  0
 12 11  1  0
 12 14  1  0
 11 10  1  0
M  CHG  1   6   1
M  END
$$$$
