
     RDKit          3D

 31 34  0  0  0  0  0  0  0  0999 V2000
   17.2523   27.7441  197.7112 C   0  0  0  0  0  0  0  0  0  0  0  0
   18.6681   27.4869  197.2283 C   0  0  0  0  0  0  0  0  0  0  0  0
   19.1296   26.2771  197.6882 O   0  0  0  0  0  0  0  0  0  0  0  0
   18.2687   25.5838  198.4996 C   0  0  0  0  0  0  0  0  0  0  0  0
   16.8794   25.4277  197.9203 C   0  0  0  0  0  0  0  0  0  0  0  0
   16.4194   26.6420  197.2857 N   0  0  0  0  0  4  0  0  0  0  0  0
   15.0510   26.8809  197.6505 C   0  0  0  0  0  0  0  0  0  0  0  0
   14.4188   28.0246  196.8928 C   0  0  0  0  0  0  0  0  0  0  0  0
   13.5739   27.4245  195.7778 C   0  0  0  0  0  0  0  0  0  0  0  0
   12.3562   28.0978  195.7138 O   0  0  0  0  0  0  0  0  0  0  0  0
   11.1162   27.5305  195.6298 C   0  0  0  0  0  0  0  0  0  0  0  0
   10.0662   28.1662  196.2580 C   0  0  0  0  0  0  0  0  0  0  0  0
    8.8014   27.6186  196.1924 C   0  0  0  0  0  0  0  0  0  0  0  0
   10.3034   29.3597  196.9533 O   0  0  0  0  0  0  0  0  0  0  0  0
    9.2700   30.3247  196.9921 C   0  0  0  0  0  0  0  0  0  0  0  0
   10.8441   26.3465  194.9479 C   0  0  0  0  0  0  0  0  0  0  0  0
    9.5771   25.8088  194.8888 C   0  0  0  0  0  0  0  0  0  0  0  0
    8.5308   26.4383  195.5125 C   0  0  0  0  0  0  0  0  0  0  0  0
    7.2917   25.9194  195.4611 N   0  0  0  0  0  0  0  0  0  0  0  0
    7.0128   24.7776  194.8092 C   0  0  0  0  0  0  0  0  0  0  0  0
    8.0227   24.1625  194.2024 N   0  0  0  0  0  0  0  0  0  0  0  0
    9.3012   24.6240  194.2090 C   0  0  0  0  0  0  0  0  0  0  0  0
   10.3279   23.9394  193.5237 N   0  0  0  0  0  0  0  0  0  0  0  0
   10.0538   22.8914  192.6170 C   0  0  0  0  0  0  0  0  0  0  0  0
    9.0903   22.9654  191.6499 C   0  0  0  0  0  0  0  0  0  0  0  0
    8.8604   21.9109  190.7586 C   0  0  0  0  0  0  0  0  0  0  0  0
    7.6182   22.0193  189.5191 Cl  0  0  0  0  0  0  0  0  0  0  0  0
    9.5966   20.7531  190.8203 C   0  0  0  0  0  0  0  0  0  0  0  0
    9.3773   19.7293  189.9590 F   0  0  0  0  0  0  0  0  0  0  0  0
   10.5692   20.6621  191.7874 C   0  0  0  0  0  0  0  0  0  0  0  0
   10.7940   21.6985  192.6617 C   0  0  0  0  0  0  0  0  0  0  0  0
 20 19  2  0
 20 21  1  0
 18 13  1  0
 18 17  2  0
 18 19  1  0
 17 16  1  0
 17 22  1  0
 22 21  2  0
 22 23  1  0
 15 14  1  0
 30 28  1  0
 30 31  2  0
 31 24  1  0
 25 24  2  0
 25 26  1  0
 13 12  2  0
 16 11  2  0
  8  7  1  0
  8  9  1  0
  9 10  1  0
  2  1  1  0
  2  3  1  0
  4  3  1  0
  4  5  1  0
  7  6  1  0
  1  6  1  0
  5  6  1  0
 28 26  2  0
 28 29  1  0
 26 27  1  0
 24 23  1  0
 12 11  1  0
 12 14  1  0
 11 10  1  0
M  CHG  1   6   1
M  END
$$$$
