
     RDKit          3D

 31 34  0  0  0  0  0  0  0  0999 V2000
   16.9929   27.4911  197.6231 C   0  0  0  0  0  0  0  0  0  0  0  0
   18.1686   27.3803  198.5768 C   0  0  0  0  0  0  0  0  0  0  0  0
   18.9124   28.5356  198.5726 O   0  0  0  0  0  0  0  0  0  0  0  0
   18.4880   29.5108  197.7072 C   0  0  0  0  0  0  0  0  0  0  0  0
   17.0157   29.8372  197.8331 C   0  0  0  0  0  0  0  0  0  0  0  0
   16.2112   28.6478  197.9975 N   0  0  0  0  0  4  0  0  0  0  0  0
   15.0403   28.7472  197.1717 C   0  0  0  0  0  0  0  0  0  0  0  0
   14.0325   27.6508  197.4249 C   0  0  0  0  0  0  0  0  0  0  0  0
   13.3921   27.2992  196.0893 C   0  0  0  0  0  0  0  0  0  0  0  0
   12.1791   27.9737  195.9723 O   0  0  0  0  0  0  0  0  0  0  0  0
   10.9449   27.4080  195.8196 C   0  0  0  0  0  0  0  0  0  0  0  0
    9.8575   28.0646  196.3560 C   0  0  0  0  0  0  0  0  0  0  0  0
    8.5974   27.5191  196.2193 C   0  0  0  0  0  0  0  0  0  0  0  0
   10.0525   29.2769  197.0318 O   0  0  0  0  0  0  0  0  0  0  0  0
    8.9511   30.1558  197.1542 C   0  0  0  0  0  0  0  0  0  0  0  0
   10.7143   26.2057  195.1544 C   0  0  0  0  0  0  0  0  0  0  0  0
    9.4517   25.6704  195.0239 C   0  0  0  0  0  0  0  0  0  0  0  0
    8.3682   26.3207  195.5563 C   0  0  0  0  0  0  0  0  0  0  0  0
    7.1330   25.8042  195.4348 N   0  0  0  0  0  0  0  0  0  0  0  0
    6.8937   24.6450  194.7979 C   0  0  0  0  0  0  0  0  0  0  0  0
    7.9397   24.0098  194.2795 N   0  0  0  0  0  0  0  0  0  0  0  0
    9.2171   24.4674  194.3607 C   0  0  0  0  0  0  0  0  0  0  0  0
   10.2849   23.7604  193.7672 N   0  0  0  0  0  0  0  0  0  0  0  0
   10.0688   22.6647  192.9020 C   0  0  0  0  0  0  0  0  0  0  0  0
    8.9088   21.9416  192.8783 C   0  0  0  0  0  0  0  0  0  0  0  0
    8.7266   20.8724  191.9936 C   0  0  0  0  0  0  0  0  0  0  0  0
    7.2294   19.9509  191.9733 Cl  0  0  0  0  0  0  0  0  0  0  0  0
    9.7109   20.5042  191.1094 C   0  0  0  0  0  0  0  0  0  0  0  0
    9.5387   19.4693  190.2507 F   0  0  0  0  0  0  0  0  0  0  0  0
   10.8840   21.2207  191.1206 C   0  0  0  0  0  0  0  0  0  0  0  0
   11.0613   22.2705  191.9897 C   0  0  0  0  0  0  0  0  0  0  0  0
 20 19  2  0
 20 21  1  0
 18 13  1  0
 18 17  2  0
 18 19  1  0
 17 16  1  0
 17 22  1  0
 22 21  2  0
 22 23  1  0
 15 14  1  0
 30 28  1  0
 30 31  2  0
 31 24  1  0
 25 24  2  0
 25 26  1  0
 13 12  2  0
 16 11  2  0
  8  7  1  0
  8  9  1  0
  9 10  1  0
  2  1  1  0
  2  3  1  0
  4  3  1  0
  4  5  1  0
  7  6  1  0
  1  6  1  0
  5  6  1  0
 28 26  2  0
 28 29  1  0
 26 27  1  0
 24 23  1  0
 12 11  1  0
 12 14  1  0
 11 10  1  0
M  CHG  1   6   1
M  END
$$$$
