
     RDKit          3D

 31 34  0  0  0  0  0  0  0  0999 V2000
   16.9822   28.3144  197.0098 C   0  0  0  0  0  0  0  0  0  0  0  0
   18.4126   28.8040  197.1448 C   0  0  0  0  0  0  0  0  0  0  0  0
   18.5474   30.0695  196.6268 O   0  0  0  0  0  0  0  0  0  0  0  0
   17.4149   30.6060  196.0702 C   0  0  0  0  0  0  0  0  0  0  0  0
   16.2020   30.5367  196.9725 C   0  0  0  0  0  0  0  0  0  0  0  0
   16.1119   29.2682  197.6593 N   0  0  0  0  0  4  0  0  0  0  0  0
   14.7526   28.8054  197.6280 C   0  0  0  0  0  0  0  0  0  0  0  0
   14.4430   27.9334  196.4341 C   0  0  0  0  0  0  0  0  0  0  0  0
   13.2050   27.1148  196.7727 C   0  0  0  0  0  0  0  0  0  0  0  0
   12.0728   27.9099  196.6110 O   0  0  0  0  0  0  0  0  0  0  0  0
   10.8198   27.4825  196.2735 C   0  0  0  0  0  0  0  0  0  0  0  0
    9.7437   28.2536  196.6591 C   0  0  0  0  0  0  0  0  0  0  0  0
    8.4651   27.8492  196.3342 C   0  0  0  0  0  0  0  0  0  0  0  0
    9.9689   29.4369  197.3756 O   0  0  0  0  0  0  0  0  0  0  0  0
    8.8504   30.2342  197.7132 C   0  0  0  0  0  0  0  0  0  0  0  0
   10.5592   26.3130  195.5626 C   0  0  0  0  0  0  0  0  0  0  0  0
    9.2782   25.9189  195.2435 C   0  0  0  0  0  0  0  0  0  0  0  0
    8.2059   26.6833  195.6255 C   0  0  0  0  0  0  0  0  0  0  0  0
    6.9527   26.3050  195.3196 N   0  0  0  0  0  0  0  0  0  0  0  0
    6.6841   25.1793  194.6361 C   0  0  0  0  0  0  0  0  0  0  0  0
    7.7192   24.4339  194.2628 N   0  0  0  0  0  0  0  0  0  0  0  0
    9.0133   24.7492  194.5339 C   0  0  0  0  0  0  0  0  0  0  0  0
   10.0729   23.9301  194.0882 N   0  0  0  0  0  0  0  0  0  0  0  0
    9.8715   22.8823  193.1623 C   0  0  0  0  0  0  0  0  0  0  0  0
    9.0421   22.9831  192.0801 C   0  0  0  0  0  0  0  0  0  0  0  0
    8.8822   21.9273  191.1752 C   0  0  0  0  0  0  0  0  0  0  0  0
    7.8125   22.0704  189.7872 Cl  0  0  0  0  0  0  0  0  0  0  0  0
    9.5549   20.7412  191.3390 C   0  0  0  0  0  0  0  0  0  0  0  0
    9.4030   19.7159  190.4649 F   0  0  0  0  0  0  0  0  0  0  0  0
   10.3926   20.6230  192.4225 C   0  0  0  0  0  0  0  0  0  0  0  0
   10.5488   21.6607  193.3100 C   0  0  0  0  0  0  0  0  0  0  0  0
 20 19  2  0
 20 21  1  0
 18 13  1  0
 18 17  2  0
 18 19  1  0
 17 16  1  0
 17 22  1  0
 22 21  2  0
 22 23  1  0
 15 14  1  0
 30 28  1  0
 30 31  2  0
 31 24  1  0
 25 24  2  0
 25 26  1  0
 13 12  2  0
 16 11  2  0
  8  7  1  0
  8  9  1  0
  9 10  1  0
  2  1  1  0
  2  3  1  0
  4  3  1  0
  4  5  1  0
  7  6  1  0
  1  6  1  0
  5  6  1  0
 28 26  2  0
 28 29  1  0
 26 27  1  0
 24 23  1  0
 12 11  1  0
 12 14  1  0
 11 10  1  0
M  CHG  1   6   1
M  END
$$$$
