
     RDKit          3D

 31 34  0  0  0  0  0  0  0  0999 V2000
   17.0856   29.7481  196.5629 C   0  0  0  0  0  0  0  0  0  0  0  0
   18.5892   29.9514  196.6054 C   0  0  0  0  0  0  0  0  0  0  0  0
   19.0470   29.9468  197.9009 O   0  0  0  0  0  0  0  0  0  0  0  0
   18.0858   29.8083  198.8689 C   0  0  0  0  0  0  0  0  0  0  0  0
   17.1552   28.6373  198.6389 C   0  0  0  0  0  0  0  0  0  0  0  0
   16.7738   28.5154  197.2502 N   0  0  0  0  0  4  0  0  0  0  0  0
   15.3670   28.2389  197.1654 C   0  0  0  0  0  0  0  0  0  0  0  0
   14.9077   27.8863  195.7702 C   0  0  0  0  0  0  0  0  0  0  0  0
   13.7107   26.9553  195.9030 C   0  0  0  0  0  0  0  0  0  0  0  0
   12.5593   27.7154  196.0952 O   0  0  0  0  0  0  0  0  0  0  0  0
   11.2732   27.3166  195.8647 C   0  0  0  0  0  0  0  0  0  0  0  0
   10.2510   28.1336  196.2992 C   0  0  0  0  0  0  0  0  0  0  0  0
    8.9408   27.7589  196.0822 C   0  0  0  0  0  0  0  0  0  0  0  0
   10.5622   29.3326  196.9548 O   0  0  0  0  0  0  0  0  0  0  0  0
    9.4938   30.1576  197.3773 C   0  0  0  0  0  0  0  0  0  0  0  0
   10.9273   26.1327  195.2167 C   0  0  0  0  0  0  0  0  0  0  0  0
    9.6156   25.7686  195.0053 C   0  0  0  0  0  0  0  0  0  0  0  0
    8.5968   26.5788  195.4362 C   0  0  0  0  0  0  0  0  0  0  0  0
    7.3141   26.2300  195.2354 N   0  0  0  0  0  0  0  0  0  0  0  0
    6.9636   25.0910  194.6138 C   0  0  0  0  0  0  0  0  0  0  0  0
    7.9466   24.3013  194.1935 N   0  0  0  0  0  0  0  0  0  0  0  0
    9.2656   24.5846  194.3589 C   0  0  0  0  0  0  0  0  0  0  0  0
   10.2656   23.7181  193.8674 N   0  0  0  0  0  0  0  0  0  0  0  0
   10.0141   22.7996  192.8239 C   0  0  0  0  0  0  0  0  0  0  0  0
    9.0232   22.9662  191.8969 C   0  0  0  0  0  0  0  0  0  0  0  0
    8.8166   22.0411  190.8670 C   0  0  0  0  0  0  0  0  0  0  0  0
    7.5386   22.2677  189.6810 Cl  0  0  0  0  0  0  0  0  0  0  0  0
    9.6046   20.9228  190.7457 C   0  0  0  0  0  0  0  0  0  0  0  0
    9.4080   20.0243  189.7495 F   0  0  0  0  0  0  0  0  0  0  0  0
   10.6054   20.7399  191.6701 C   0  0  0  0  0  0  0  0  0  0  0  0
   10.8072   21.6492  192.6807 C   0  0  0  0  0  0  0  0  0  0  0  0
 20 19  2  0
 20 21  1  0
 18 13  1  0
 18 17  2  0
 18 19  1  0
 17 16  1  0
 17 22  1  0
 22 21  2  0
 22 23  1  0
 15 14  1  0
 30 28  1  0
 30 31  2  0
 31 24  1  0
 25 24  2  0
 25 26  1  0
 13 12  2  0
 16 11  2  0
  8  7  1  0
  8  9  1  0
  9 10  1  0
  2  1  1  0
  2  3  1  0
  4  3  1  0
  4  5  1  0
  7  6  1  0
  1  6  1  0
  5  6  1  0
 28 26  2  0
 28 29  1  0
 26 27  1  0
 24 23  1  0
 12 11  1  0
 12 14  1  0
 11 10  1  0
M  CHG  1   6   1
M  END
$$$$
