
     RDKit          3D

 31 34  0  0  0  0  0  0  0  0999 V2000
   17.0176   29.6280  198.6328 C   0  0  0  0  0  0  0  0  0  0  0  0
   18.1444   30.6266  198.4401 C   0  0  0  0  0  0  0  0  0  0  0  0
   19.1485   30.0889  197.6715 O   0  0  0  0  0  0  0  0  0  0  0  0
   18.9631   28.7880  197.2796 C   0  0  0  0  0  0  0  0  0  0  0  0
   17.6176   28.5325  196.6356 C   0  0  0  0  0  0  0  0  0  0  0  0
   16.5488   29.2143  197.3296 N   0  0  0  0  0  4  0  0  0  0  0  0
   15.4257   28.3288  197.4613 C   0  0  0  0  0  0  0  0  0  0  0  0
   14.8879   27.8406  196.1369 C   0  0  0  0  0  0  0  0  0  0  0  0
   13.6408   27.0162  196.4242 C   0  0  0  0  0  0  0  0  0  0  0  0
   12.5117   27.7838  196.1483 O   0  0  0  0  0  0  0  0  0  0  0  0
   11.2537   27.3174  195.8908 C   0  0  0  0  0  0  0  0  0  0  0  0
   10.1806   28.0688  196.3209 C   0  0  0  0  0  0  0  0  0  0  0  0
    8.8971   27.6249  196.0769 C   0  0  0  0  0  0  0  0  0  0  0  0
   10.4137   29.2727  196.9996 O   0  0  0  0  0  0  0  0  0  0  0  0
    9.2946   30.0440  197.3913 C   0  0  0  0  0  0  0  0  0  0  0  0
   10.9851   26.1265  195.2194 C   0  0  0  0  0  0  0  0  0  0  0  0
    9.6993   25.6929  194.9811 C   0  0  0  0  0  0  0  0  0  0  0  0
    8.6300   26.4378  195.4076 C   0  0  0  0  0  0  0  0  0  0  0  0
    7.3722   26.0210  195.1806 N   0  0  0  0  0  0  0  0  0  0  0  0
    7.0960   24.8743  194.5362 C   0  0  0  0  0  0  0  0  0  0  0  0
    8.1282   24.1477  194.1201 N   0  0  0  0  0  0  0  0  0  0  0  0
    9.4265   24.5017  194.3113 C   0  0  0  0  0  0  0  0  0  0  0  0
   10.4811   23.7006  193.8231 N   0  0  0  0  0  0  0  0  0  0  0  0
   10.2750   22.7106  192.8366 C   0  0  0  0  0  0  0  0  0  0  0  0
    9.3976   22.8540  191.7980 C   0  0  0  0  0  0  0  0  0  0  0  0
    9.2342   21.8559  190.8303 C   0  0  0  0  0  0  0  0  0  0  0  0
    8.1025   22.0534  189.4993 Cl  0  0  0  0  0  0  0  0  0  0  0  0
    9.9517   20.6862  190.8857 C   0  0  0  0  0  0  0  0  0  0  0  0
    9.7965   19.7169  189.9504 F   0  0  0  0  0  0  0  0  0  0  0  0
   10.8379   20.5257  191.9241 C   0  0  0  0  0  0  0  0  0  0  0  0
   10.9975   21.5067  192.8734 C   0  0  0  0  0  0  0  0  0  0  0  0
 20 19  2  0
 20 21  1  0
 18 13  1  0
 18 17  2  0
 18 19  1  0
 17 16  1  0
 17 22  1  0
 22 21  2  0
 22 23  1  0
 15 14  1  0
 30 28  1  0
 30 31  2  0
 31 24  1  0
 25 24  2  0
 25 26  1  0
 13 12  2  0
 16 11  2  0
  8  7  1  0
  8  9  1  0
  9 10  1  0
  2  1  1  0
  2  3  1  0
  4  3  1  0
  4  5  1  0
  7  6  1  0
  1  6  1  0
  5  6  1  0
 28 26  2  0
 28 29  1  0
 26 27  1  0
 24 23  1  0
 12 11  1  0
 12 14  1  0
 11 10  1  0
M  CHG  1   6   1
M  END
$$$$
