
     RDKit          3D

 31 34  0  0  0  0  0  0  0  0999 V2000
   17.2105   28.9980  196.6036 C   0  0  0  0  0  0  0  0  0  0  0  0
   18.6966   28.8233  196.8583 C   0  0  0  0  0  0  0  0  0  0  0  0
   19.0088   29.1283  198.1612 O   0  0  0  0  0  0  0  0  0  0  0  0
   17.9625   29.5572  198.9367 C   0  0  0  0  0  0  0  0  0  0  0  0
   16.7554   28.6458  198.8878 C   0  0  0  0  0  0  0  0  0  0  0  0
   16.4876   28.1760  197.5474 N   0  0  0  0  0  4  0  0  0  0  0  0
   15.0761   28.2461  197.2915 C   0  0  0  0  0  0  0  0  0  0  0  0
   14.7127   27.9693  195.8517 C   0  0  0  0  0  0  0  0  0  0  0  0
   13.5531   26.9830  195.8528 C   0  0  0  0  0  0  0  0  0  0  0  0
   12.3739   27.6641  196.1458 O   0  0  0  0  0  0  0  0  0  0  0  0
   11.1013   27.2234  195.9163 C   0  0  0  0  0  0  0  0  0  0  0  0
   10.0539   27.9845  196.3906 C   0  0  0  0  0  0  0  0  0  0  0  0
    8.7566   27.5666  196.1758 C   0  0  0  0  0  0  0  0  0  0  0  0
   10.3269   29.1716  197.0840 O   0  0  0  0  0  0  0  0  0  0  0  0
    9.2428   30.0241  197.3976 C   0  0  0  0  0  0  0  0  0  0  0  0
   10.7932   26.0498  195.2316 C   0  0  0  0  0  0  0  0  0  0  0  0
    9.4940   25.6422  195.0227 C   0  0  0  0  0  0  0  0  0  0  0  0
    8.4502   26.3967  195.4932 C   0  0  0  0  0  0  0  0  0  0  0  0
    7.1794   26.0051  195.2951 N   0  0  0  0  0  0  0  0  0  0  0  0
    6.8653   24.8753  194.6383 C   0  0  0  0  0  0  0  0  0  0  0  0
    7.8727   24.1395  194.1796 N   0  0  0  0  0  0  0  0  0  0  0  0
    9.1818   24.4683  194.3396 C   0  0  0  0  0  0  0  0  0  0  0  0
   10.2081   23.6589  193.8068 N   0  0  0  0  0  0  0  0  0  0  0  0
    9.9401   22.6100  192.8994 C   0  0  0  0  0  0  0  0  0  0  0  0
    9.0349   22.7097  191.8797 C   0  0  0  0  0  0  0  0  0  0  0  0
    8.8098   21.6526  190.9901 C   0  0  0  0  0  0  0  0  0  0  0  0
    7.6429   21.7943  189.6827 Cl  0  0  0  0  0  0  0  0  0  0  0  0
    9.4921   20.4664  191.1067 C   0  0  0  0  0  0  0  0  0  0  0  0
    9.2773   19.4401  190.2472 F   0  0  0  0  0  0  0  0  0  0  0  0
   10.4057   20.3494  192.1271 C   0  0  0  0  0  0  0  0  0  0  0  0
   10.6258   21.3883  192.9996 C   0  0  0  0  0  0  0  0  0  0  0  0
 20 19  2  0
 20 21  1  0
 18 13  1  0
 18 17  2  0
 18 19  1  0
 17 16  1  0
 17 22  1  0
 22 21  2  0
 22 23  1  0
 15 14  1  0
 30 28  1  0
 30 31  2  0
 31 24  1  0
 25 24  2  0
 25 26  1  0
 13 12  2  0
 16 11  2  0
  8  7  1  0
  8  9  1  0
  9 10  1  0
  2  1  1  0
  2  3  1  0
  4  3  1  0
  4  5  1  0
  7  6  1  0
  1  6  1  0
  5  6  1  0
 28 26  2  0
 28 29  1  0
 26 27  1  0
 24 23  1  0
 12 11  1  0
 12 14  1  0
 11 10  1  0
M  CHG  1   6   1
M  END
$$$$
