
     RDKit          3D

 31 34  0  0  0  0  0  0  0  0999 V2000
   17.6097   27.0951  195.2435 C   0  0  0  0  0  0  0  0  0  0  0  0
   19.0303   26.5695  195.3420 C   0  0  0  0  0  0  0  0  0  0  0  0
   19.8719   27.5277  195.8537 O   0  0  0  0  0  0  0  0  0  0  0  0
   19.2937   28.7412  196.1246 C   0  0  0  0  0  0  0  0  0  0  0  0
   18.0397   28.6432  196.9660 C   0  0  0  0  0  0  0  0  0  0  0  0
   17.1983   27.5423  196.5549 N   0  0  0  0  0  4  0  0  0  0  0  0
   15.8288   27.9740  196.5279 C   0  0  0  0  0  0  0  0  0  0  0  0
   14.8505   26.8515  196.2736 C   0  0  0  0  0  0  0  0  0  0  0  0
   13.5901   27.1517  197.0728 C   0  0  0  0  0  0  0  0  0  0  0  0
   12.6400   27.7239  196.2302 O   0  0  0  0  0  0  0  0  0  0  0  0
   11.3713   27.2690  196.0068 C   0  0  0  0  0  0  0  0  0  0  0  0
   10.3180   28.0132  196.4946 C   0  0  0  0  0  0  0  0  0  0  0  0
    9.0244   27.5805  196.2861 C   0  0  0  0  0  0  0  0  0  0  0  0
   10.5812   29.1983  197.1949 O   0  0  0  0  0  0  0  0  0  0  0  0
    9.5407   30.1496  197.3092 C   0  0  0  0  0  0  0  0  0  0  0  0
   11.0730   26.0968  195.3153 C   0  0  0  0  0  0  0  0  0  0  0  0
    9.7774   25.6743  195.1129 C   0  0  0  0  0  0  0  0  0  0  0  0
    8.7277   26.4120  195.5968 C   0  0  0  0  0  0  0  0  0  0  0  0
    7.4606   26.0059  195.4050 N   0  0  0  0  0  0  0  0  0  0  0  0
    7.1558   24.8772  194.7420 C   0  0  0  0  0  0  0  0  0  0  0  0
    8.1689   24.1577  194.2702 N   0  0  0  0  0  0  0  0  0  0  0  0
    9.4749   24.5018  194.4232 C   0  0  0  0  0  0  0  0  0  0  0  0
   10.5074   23.7095  193.8766 N   0  0  0  0  0  0  0  0  0  0  0  0
   10.2436   22.6476  192.9831 C   0  0  0  0  0  0  0  0  0  0  0  0
    9.4095   22.7598  191.9058 C   0  0  0  0  0  0  0  0  0  0  0  0
    9.1870   21.6883  191.0331 C   0  0  0  0  0  0  0  0  0  0  0  0
    8.1119   21.8463  189.6510 Cl  0  0  0  0  0  0  0  0  0  0  0  0
    9.8003   20.4745  191.2252 C   0  0  0  0  0  0  0  0  0  0  0  0
    9.5877   19.4340  190.3823 F   0  0  0  0  0  0  0  0  0  0  0  0
   10.6419   20.3446  192.3042 C   0  0  0  0  0  0  0  0  0  0  0  0
   10.8596   21.3977  193.1601 C   0  0  0  0  0  0  0  0  0  0  0  0
 20 19  2  0
 20 21  1  0
 18 13  1  0
 18 17  2  0
 18 19  1  0
 17 16  1  0
 17 22  1  0
 22 21  2  0
 22 23  1  0
 15 14  1  0
 30 28  1  0
 30 31  2  0
 31 24  1  0
 25 24  2  0
 25 26  1  0
 13 12  2  0
 16 11  2  0
  8  7  1  0
  8  9  1  0
  9 10  1  0
  2  1  1  0
  2  3  1  0
  4  3  1  0
  4  5  1  0
  7  6  1  0
  1  6  1  0
  5  6  1  0
 28 26  2  0
 28 29  1  0
 26 27  1  0
 24 23  1  0
 12 11  1  0
 12 14  1  0
 11 10  1  0
M  CHG  1   6   1
M  END
$$$$
