
     RDKit          3D

 31 34  0  0  0  0  0  0  0  0999 V2000
   16.6693   30.1640  196.2974 C   0  0  0  0  0  0  0  0  0  0  0  0
   18.1495   30.4938  196.3636 C   0  0  0  0  0  0  0  0  0  0  0  0
   18.5338   30.7610  197.6555 O   0  0  0  0  0  0  0  0  0  0  0  0
   17.5330   30.7217  198.5919 C   0  0  0  0  0  0  0  0  0  0  0  0
   16.7042   29.4564  198.5439 C   0  0  0  0  0  0  0  0  0  0  0  0
   16.4104   29.0547  197.1870 N   0  0  0  0  0  4  0  0  0  0  0  0
   15.0343   28.6534  197.0967 C   0  0  0  0  0  0  0  0  0  0  0  0
   14.6972   27.9524  195.8019 C   0  0  0  0  0  0  0  0  0  0  0  0
   13.5826   26.9580  196.0953 C   0  0  0  0  0  0  0  0  0  0  0  0
   12.3902   27.6517  196.2888 O   0  0  0  0  0  0  0  0  0  0  0  0
   11.1339   27.2118  195.9813 C   0  0  0  0  0  0  0  0  0  0  0  0
   10.0619   27.9987  196.3456 C   0  0  0  0  0  0  0  0  0  0  0  0
    8.7800   27.5823  196.0499 C   0  0  0  0  0  0  0  0  0  0  0  0
   10.2944   29.2101  197.0110 O   0  0  0  0  0  0  0  0  0  0  0  0
    9.1890   29.8727  197.5939 C   0  0  0  0  0  0  0  0  0  0  0  0
   10.8659   26.0145  195.3212 C   0  0  0  0  0  0  0  0  0  0  0  0
    9.5818   25.6086  195.0309 C   0  0  0  0  0  0  0  0  0  0  0  0
    8.5135   26.3887  195.3919 C   0  0  0  0  0  0  0  0  0  0  0  0
    7.2572   25.9991  195.1140 N   0  0  0  0  0  0  0  0  0  0  0  0
    6.9816   24.8467  194.4796 C   0  0  0  0  0  0  0  0  0  0  0  0
    8.0128   24.0860  194.1269 N   0  0  0  0  0  0  0  0  0  0  0  0
    9.3096   24.4111  194.3723 C   0  0  0  0  0  0  0  0  0  0  0  0
   10.3645   23.5737  193.9500 N   0  0  0  0  0  0  0  0  0  0  0  0
   10.1900   22.5993  192.9422 C   0  0  0  0  0  0  0  0  0  0  0  0
    9.2685   22.7111  191.9385 C   0  0  0  0  0  0  0  0  0  0  0  0
    9.1377   21.7311  190.9477 C   0  0  0  0  0  0  0  0  0  0  0  0
    7.9486   21.8876  189.6621 Cl  0  0  0  0  0  0  0  0  0  0  0  0
    9.9334   20.6117  190.9440 C   0  0  0  0  0  0  0  0  0  0  0  0
    9.8102   19.6601  189.9862 F   0  0  0  0  0  0  0  0  0  0  0  0
   10.8649   20.4835  191.9467 C   0  0  0  0  0  0  0  0  0  0  0  0
   10.9924   21.4467  192.9187 C   0  0  0  0  0  0  0  0  0  0  0  0
 20 19  2  0
 20 21  1  0
 18 13  1  0
 18 17  2  0
 18 19  1  0
 17 16  1  0
 17 22  1  0
 22 21  2  0
 22 23  1  0
 15 14  1  0
 30 28  1  0
 30 31  2  0
 31 24  1  0
 25 24  2  0
 25 26  1  0
 13 12  2  0
 16 11  2  0
  8  7  1  0
  8  9  1  0
  9 10  1  0
  2  1  1  0
  2  3  1  0
  4  3  1  0
  4  5  1  0
  7  6  1  0
  1  6  1  0
  5  6  1  0
 28 26  2  0
 28 29  1  0
 26 27  1  0
 24 23  1  0
 12 11  1  0
 12 14  1  0
 11 10  1  0
M  CHG  1   6   1
M  END
$$$$
