
     RDKit          3D

 31 34  0  0  0  0  0  0  0  0999 V2000
   17.6531   27.9333  197.3693 C   0  0  0  0  0  0  0  0  0  0  0  0
   19.1430   27.9551  197.0797 C   0  0  0  0  0  0  0  0  0  0  0  0
   19.6215   26.6824  196.8817 O   0  0  0  0  0  0  0  0  0  0  0  0
   18.7021   25.6748  197.0222 C   0  0  0  0  0  0  0  0  0  0  0  0
   17.4374   25.8889  196.2193 C   0  0  0  0  0  0  0  0  0  0  0  0
   16.9873   27.2611  196.2766 N   0  0  0  0  0  4  0  0  0  0  0  0
   15.5641   27.2878  196.4674 C   0  0  0  0  0  0  0  0  0  0  0  0
   14.7918   26.7090  195.3053 C   0  0  0  0  0  0  0  0  0  0  0  0
   13.6325   27.6506  195.0107 C   0  0  0  0  0  0  0  0  0  0  0  0
   12.6086   27.4153  195.9253 O   0  0  0  0  0  0  0  0  0  0  0  0
   11.3154   27.0866  195.6322 C   0  0  0  0  0  0  0  0  0  0  0  0
   10.3110   27.8877  196.1330 C   0  0  0  0  0  0  0  0  0  0  0  0
    8.9943   27.5823  195.8555 C   0  0  0  0  0  0  0  0  0  0  0  0
   10.6468   29.0000  196.9168 O   0  0  0  0  0  0  0  0  0  0  0  0
    9.7620   30.1036  196.9207 C   0  0  0  0  0  0  0  0  0  0  0  0
   10.9454   25.9896  194.8570 C   0  0  0  0  0  0  0  0  0  0  0  0
    9.6273   25.6943  194.5861 C   0  0  0  0  0  0  0  0  0  0  0  0
    8.6261   26.4887  195.0828 C   0  0  0  0  0  0  0  0  0  0  0  0
    7.3374   26.2065  194.8245 N   0  0  0  0  0  0  0  0  0  0  0  0
    6.9636   25.1516  194.0803 C   0  0  0  0  0  0  0  0  0  0  0  0
    7.9293   24.3775  193.5957 N   0  0  0  0  0  0  0  0  0  0  0  0
    9.2531   24.5971  193.8126 C   0  0  0  0  0  0  0  0  0  0  0  0
   10.2348   23.7537  193.2493 N   0  0  0  0  0  0  0  0  0  0  0  0
    9.9114   22.7547  192.3044 C   0  0  0  0  0  0  0  0  0  0  0  0
   10.5255   21.5341  192.2593 C   0  0  0  0  0  0  0  0  0  0  0  0
   10.1646   20.5636  191.3174 C   0  0  0  0  0  0  0  0  0  0  0  0
   10.9624   18.9975  191.2707 Cl  0  0  0  0  0  0  0  0  0  0  0  0
    9.1744   20.7996  190.3955 C   0  0  0  0  0  0  0  0  0  0  0  0
    8.8215   19.8624  189.4816 F   0  0  0  0  0  0  0  0  0  0  0  0
    8.5470   22.0223  190.4268 C   0  0  0  0  0  0  0  0  0  0  0  0
    8.9023   22.9742  191.3523 C   0  0  0  0  0  0  0  0  0  0  0  0
 20 19  2  0
 20 21  1  0
 18 13  1  0
 18 17  2  0
 18 19  1  0
 17 16  1  0
 17 22  1  0
 22 21  2  0
 22 23  1  0
 15 14  1  0
 30 28  1  0
 30 31  2  0
 31 24  1  0
 25 24  2  0
 25 26  1  0
 13 12  2  0
 16 11  2  0
  8  7  1  0
  8  9  1  0
  9 10  1  0
  2  1  1  0
  2  3  1  0
  4  3  1  0
  4  5  1  0
  7  6  1  0
  1  6  1  0
  5  6  1  0
 28 26  2  0
 28 29  1  0
 26 27  1  0
 24 23  1  0
 12 11  1  0
 12 14  1  0
 11 10  1  0
M  CHG  1   6   1
M  END
$$$$
