
     RDKit          3D

 31 34  0  0  0  0  0  0  0  0999 V2000
   17.1101   30.5853  196.1136 C   0  0  0  0  0  0  0  0  0  0  0  0
   18.6230   30.6470  196.0067 C   0  0  0  0  0  0  0  0  0  0  0  0
   19.2141   30.1783  197.1551 O   0  0  0  0  0  0  0  0  0  0  0  0
   18.3532   29.8011  198.1535 C   0  0  0  0  0  0  0  0  0  0  0  0
   17.2710   28.8475  197.6956 C   0  0  0  0  0  0  0  0  0  0  0  0
   16.7303   29.2224  196.4087 N   0  0  0  0  0  4  0  0  0  0  0  0
   15.2997   29.0985  196.4390 C   0  0  0  0  0  0  0  0  0  0  0  0
   14.8249   27.7290  196.8645 C   0  0  0  0  0  0  0  0  0  0  0  0
   13.7955   27.2632  195.8444 C   0  0  0  0  0  0  0  0  0  0  0  0
   12.5814   27.8975  196.0974 O   0  0  0  0  0  0  0  0  0  0  0  0
   11.3349   27.3609  195.9407 C   0  0  0  0  0  0  0  0  0  0  0  0
   10.2763   27.9798  196.5713 C   0  0  0  0  0  0  0  0  0  0  0  0
    9.0047   27.4622  196.4332 C   0  0  0  0  0  0  0  0  0  0  0  0
   10.5119   29.1259  197.3428 O   0  0  0  0  0  0  0  0  0  0  0  0
    9.4598   30.0604  197.4858 C   0  0  0  0  0  0  0  0  0  0  0  0
   11.0642   26.2242  195.1819 C   0  0  0  0  0  0  0  0  0  0  0  0
    9.7903   25.7162  195.0509 C   0  0  0  0  0  0  0  0  0  0  0  0
    8.7355   26.3291  195.6768 C   0  0  0  0  0  0  0  0  0  0  0  0
    7.4896   25.8389  195.5555 N   0  0  0  0  0  0  0  0  0  0  0  0
    7.2118   24.7428  194.8290 C   0  0  0  0  0  0  0  0  0  0  0  0
    8.2300   24.1440  194.2196 N   0  0  0  0  0  0  0  0  0  0  0  0
    9.5157   24.5787  194.2942 C   0  0  0  0  0  0  0  0  0  0  0  0
   10.5519   23.9148  193.6030 N   0  0  0  0  0  0  0  0  0  0  0  0
   10.3072   22.7839  192.7925 C   0  0  0  0  0  0  0  0  0  0  0  0
    9.4771   22.8015  191.7064 C   0  0  0  0  0  0  0  0  0  0  0  0
    9.2738   21.6632  190.9176 C   0  0  0  0  0  0  0  0  0  0  0  0
    8.2036   21.6998  189.5231 Cl  0  0  0  0  0  0  0  0  0  0  0  0
    9.9026   20.4765  191.2047 C   0  0  0  0  0  0  0  0  0  0  0  0
    9.7085   19.3716  190.4433 F   0  0  0  0  0  0  0  0  0  0  0  0
   10.7403   20.4414  192.2939 C   0  0  0  0  0  0  0  0  0  0  0  0
   10.9392   21.5600  193.0674 C   0  0  0  0  0  0  0  0  0  0  0  0
 20 19  2  0
 20 21  1  0
 18 13  1  0
 18 17  2  0
 18 19  1  0
 17 16  1  0
 17 22  1  0
 22 21  2  0
 22 23  1  0
 15 14  1  0
 30 28  1  0
 30 31  2  0
 31 24  1  0
 25 24  2  0
 25 26  1  0
 13 12  2  0
 16 11  2  0
  8  7  1  0
  8  9  1  0
  9 10  1  0
  2  1  1  0
  2  3  1  0
  4  3  1  0
  4  5  1  0
  7  6  1  0
  1  6  1  0
  5  6  1  0
 28 26  2  0
 28 29  1  0
 26 27  1  0
 24 23  1  0
 12 11  1  0
 12 14  1  0
 11 10  1  0
M  CHG  1   6   1
M  END
$$$$
