
     RDKit          3D

 31 34  0  0  0  0  0  0  0  0999 V2000
   16.8499   27.8654  198.3477 C   0  0  0  0  0  0  0  0  0  0  0  0
   17.9482   28.3816  199.2595 C   0  0  0  0  0  0  0  0  0  0  0  0
   19.0711   28.7065  198.5373 O   0  0  0  0  0  0  0  0  0  0  0  0
   18.9981   28.4686  197.1888 C   0  0  0  0  0  0  0  0  0  0  0  0
   17.7669   29.0553  196.5333 C   0  0  0  0  0  0  0  0  0  0  0  0
   16.5839   28.8695  197.3426 N   0  0  0  0  0  4  0  0  0  0  0  0
   15.4928   28.4589  196.5037 C   0  0  0  0  0  0  0  0  0  0  0  0
   14.4126   27.7098  197.2478 C   0  0  0  0  0  0  0  0  0  0  0  0
   13.5104   27.0558  196.2106 C   0  0  0  0  0  0  0  0  0  0  0  0
   12.3320   27.7905  196.1013 O   0  0  0  0  0  0  0  0  0  0  0  0
   11.0788   27.2910  195.8861 C   0  0  0  0  0  0  0  0  0  0  0  0
   10.0089   27.9533  196.4500 C   0  0  0  0  0  0  0  0  0  0  0  0
    8.7302   27.4739  196.2520 C   0  0  0  0  0  0  0  0  0  0  0  0
   10.2403   29.1040  197.2159 O   0  0  0  0  0  0  0  0  0  0  0  0
    9.4487   30.2471  196.9565 C   0  0  0  0  0  0  0  0  0  0  0  0
   10.8119   26.1509  195.1310 C   0  0  0  0  0  0  0  0  0  0  0  0
    9.5310   25.6813  194.9397 C   0  0  0  0  0  0  0  0  0  0  0  0
    8.4649   26.3374  195.4992 C   0  0  0  0  0  0  0  0  0  0  0  0
    7.2120   25.8848  195.3188 N   0  0  0  0  0  0  0  0  0  0  0  0
    6.9377   24.7861  194.5948 C   0  0  0  0  0  0  0  0  0  0  0  0
    7.9668   24.1455  194.0497 N   0  0  0  0  0  0  0  0  0  0  0  0
    9.2601   24.5406  194.1864 C   0  0  0  0  0  0  0  0  0  0  0  0
   10.3095   23.8329  193.5615 N   0  0  0  0  0  0  0  0  0  0  0  0
   10.0654   22.7923  192.6379 C   0  0  0  0  0  0  0  0  0  0  0  0
    8.8903   22.0958  192.5819 C   0  0  0  0  0  0  0  0  0  0  0  0
    8.6805   21.0819  191.6399 C   0  0  0  0  0  0  0  0  0  0  0  0
    7.1641   20.1942  191.5786 Cl  0  0  0  0  0  0  0  0  0  0  0  0
    9.6517   20.7436  190.7298 C   0  0  0  0  0  0  0  0  0  0  0  0
    9.4527   19.7623  189.8157 F   0  0  0  0  0  0  0  0  0  0  0  0
   10.8397   21.4339  190.7728 C   0  0  0  0  0  0  0  0  0  0  0  0
   11.0441   22.4294  191.6981 C   0  0  0  0  0  0  0  0  0  0  0  0
 20 19  2  0
 20 21  1  0
 18 13  1  0
 18 17  2  0
 18 19  1  0
 17 16  1  0
 17 22  1  0
 22 21  2  0
 22 23  1  0
 15 14  1  0
 30 28  1  0
 30 31  2  0
 31 24  1  0
 25 24  2  0
 25 26  1  0
 13 12  2  0
 16 11  2  0
  8  7  1  0
  8  9  1  0
  9 10  1  0
  2  1  1  0
  2  3  1  0
  4  3  1  0
  4  5  1  0
  7  6  1  0
  1  6  1  0
  5  6  1  0
 28 26  2  0
 28 29  1  0
 26 27  1  0
 24 23  1  0
 12 11  1  0
 12 14  1  0
 11 10  1  0
M  CHG  1   6   1
M  END
$$$$
