
     RDKit          3D

 31 34  0  0  0  0  0  0  0  0999 V2000
   17.7814   27.5489  196.1874 C   0  0  0  0  0  0  0  0  0  0  0  0
   19.0424   26.7049  196.1479 C   0  0  0  0  0  0  0  0  0  0  0  0
   19.5796   26.5688  197.4053 O   0  0  0  0  0  0  0  0  0  0  0  0
   18.9201   27.2339  198.4068 C   0  0  0  0  0  0  0  0  0  0  0  0
   17.4321   26.9606  198.4413 C   0  0  0  0  0  0  0  0  0  0  0  0
   16.8559   26.9405  197.1160 N   0  0  0  0  0  4  0  0  0  0  0  0
   15.6134   27.6608  197.1261 C   0  0  0  0  0  0  0  0  0  0  0  0
   14.6733   27.2513  196.0169 C   0  0  0  0  0  0  0  0  0  0  0  0
   13.3935   26.7421  196.6650 C   0  0  0  0  0  0  0  0  0  0  0  0
   12.3266   27.5405  196.2594 O   0  0  0  0  0  0  0  0  0  0  0  0
   11.0529   27.1234  195.9945 C   0  0  0  0  0  0  0  0  0  0  0  0
   10.0080   27.9274  196.3983 C   0  0  0  0  0  0  0  0  0  0  0  0
    8.7096   27.5341  196.1462 C   0  0  0  0  0  0  0  0  0  0  0  0
   10.2844   29.1321  197.0589 O   0  0  0  0  0  0  0  0  0  0  0  0
    9.2005   29.9874  197.3659 C   0  0  0  0  0  0  0  0  0  0  0  0
   10.7414   25.9333  195.3405 C   0  0  0  0  0  0  0  0  0  0  0  0
    9.4411   25.5506  195.0940 C   0  0  0  0  0  0  0  0  0  0  0  0
    8.3997   26.3477  195.4943 C   0  0  0  0  0  0  0  0  0  0  0  0
    7.1280   25.9808  195.2591 N   0  0  0  0  0  0  0  0  0  0  0  0
    6.8105   24.8356  194.6312 C   0  0  0  0  0  0  0  0  0  0  0  0
    7.8155   24.0585  194.2405 N   0  0  0  0  0  0  0  0  0  0  0  0
    9.1254   24.3603  194.4416 C   0  0  0  0  0  0  0  0  0  0  0  0
   10.1504   23.5065  193.9803 N   0  0  0  0  0  0  0  0  0  0  0  0
    9.9097   22.4968  193.0220 C   0  0  0  0  0  0  0  0  0  0  0  0
    9.0217   22.6333  191.9915 C   0  0  0  0  0  0  0  0  0  0  0  0
    8.8237   21.6151  191.0517 C   0  0  0  0  0  0  0  0  0  0  0  0
    7.6787   21.8039  189.7308 Cl  0  0  0  0  0  0  0  0  0  0  0  0
    9.5165   20.4317  191.1274 C   0  0  0  0  0  0  0  0  0  0  0  0
    9.3278   19.4429  190.2191 F   0  0  0  0  0  0  0  0  0  0  0  0
   10.4130   20.2779  192.1580 C   0  0  0  0  0  0  0  0  0  0  0  0
   10.6065   21.2787  193.0800 C   0  0  0  0  0  0  0  0  0  0  0  0
 20 19  2  0
 20 21  1  0
 18 13  1  0
 18 17  2  0
 18 19  1  0
 17 16  1  0
 17 22  1  0
 22 21  2  0
 22 23  1  0
 15 14  1  0
 30 28  1  0
 30 31  2  0
 31 24  1  0
 25 24  2  0
 25 26  1  0
 13 12  2  0
 16 11  2  0
  8  7  1  0
  8  9  1  0
  9 10  1  0
  2  1  1  0
  2  3  1  0
  4  3  1  0
  4  5  1  0
  7  6  1  0
  1  6  1  0
  5  6  1  0
 28 26  2  0
 28 29  1  0
 26 27  1  0
 24 23  1  0
 12 11  1  0
 12 14  1  0
 11 10  1  0
M  CHG  1   6   1
M  END
$$$$
