
     RDKit          3D

 31 34  0  0  0  0  0  0  0  0999 V2000
   15.8500   30.5364  197.2274 C   0  0  0  0  0  0  0  0  0  0  0  0
   16.7117   31.4402  196.3644 C   0  0  0  0  0  0  0  0  0  0  0  0
   18.0416   31.1212  196.4979 O   0  0  0  0  0  0  0  0  0  0  0  0
   18.3237   30.1146  197.3853 C   0  0  0  0  0  0  0  0  0  0  0  0
   17.5049   28.8613  197.1639 C   0  0  0  0  0  0  0  0  0  0  0  0
   16.1240   29.1646  196.8641 N   0  0  0  0  0  4  0  0  0  0  0  0
   15.2705   28.2737  197.5994 C   0  0  0  0  0  0  0  0  0  0  0  0
   14.3268   27.4858  196.7217 C   0  0  0  0  0  0  0  0  0  0  0  0
   12.9493   27.5367  197.3678 C   0  0  0  0  0  0  0  0  0  0  0  0
   12.0527   28.1361  196.4863 O   0  0  0  0  0  0  0  0  0  0  0  0
   10.8283   27.6544  196.1185 C   0  0  0  0  0  0  0  0  0  0  0  0
    9.7111   28.3837  196.4665 C   0  0  0  0  0  0  0  0  0  0  0  0
    8.4598   27.9240  196.1102 C   0  0  0  0  0  0  0  0  0  0  0  0
    9.8672   29.5814  197.1775 O   0  0  0  0  0  0  0  0  0  0  0  0
    9.0439   30.6766  196.8264 C   0  0  0  0  0  0  0  0  0  0  0  0
   10.6360   26.4691  195.4120 C   0  0  0  0  0  0  0  0  0  0  0  0
    9.3818   26.0197  195.0613 C   0  0  0  0  0  0  0  0  0  0  0  0
    8.2687   26.7424  195.4060 C   0  0  0  0  0  0  0  0  0  0  0  0
    7.0411   26.3100  195.0692 N   0  0  0  0  0  0  0  0  0  0  0  0
    6.8382   25.1684  194.3895 C   0  0  0  0  0  0  0  0  0  0  0  0
    7.9132   24.4632  194.0523 N   0  0  0  0  0  0  0  0  0  0  0  0
    9.1851   24.8340  194.3561 C   0  0  0  0  0  0  0  0  0  0  0  0
   10.2896   24.0556  193.9479 N   0  0  0  0  0  0  0  0  0  0  0  0
   10.1683   23.0312  192.9827 C   0  0  0  0  0  0  0  0  0  0  0  0
    9.1328   22.9536  192.0934 C   0  0  0  0  0  0  0  0  0  0  0  0
    9.0572   21.9315  191.1401 C   0  0  0  0  0  0  0  0  0  0  0  0
    7.7200   21.8437  190.0019 Cl  0  0  0  0  0  0  0  0  0  0  0  0
   10.0247   20.9601  191.0594 C   0  0  0  0  0  0  0  0  0  0  0  0
    9.9555   19.9684  190.1375 F   0  0  0  0  0  0  0  0  0  0  0  0
   11.0726   21.0231  191.9468 C   0  0  0  0  0  0  0  0  0  0  0  0
   11.1457   22.0275  192.8822 C   0  0  0  0  0  0  0  0  0  0  0  0
 20 19  2  0
 20 21  1  0
 18 13  1  0
 18 17  2  0
 18 19  1  0
 17 16  1  0
 17 22  1  0
 22 21  2  0
 22 23  1  0
 15 14  1  0
 30 28  1  0
 30 31  2  0
 31 24  1  0
 25 24  2  0
 25 26  1  0
 13 12  2  0
 16 11  2  0
  8  7  1  0
  8  9  1  0
  9 10  1  0
  2  1  1  0
  2  3  1  0
  4  3  1  0
  4  5  1  0
  7  6  1  0
  1  6  1  0
  5  6  1  0
 28 26  2  0
 28 29  1  0
 26 27  1  0
 24 23  1  0
 12 11  1  0
 12 14  1  0
 11 10  1  0
M  CHG  1   6   1
M  END
$$$$
