
     RDKit          3D

 31 34  0  0  0  0  0  0  0  0999 V2000
   17.2829   29.2784  197.4496 C   0  0  0  0  0  0  0  0  0  0  0  0
   18.7877   29.0833  197.4132 C   0  0  0  0  0  0  0  0  0  0  0  0
   19.1416   27.8959  198.0073 O   0  0  0  0  0  0  0  0  0  0  0  0
   18.1079   27.1665  198.5363 C   0  0  0  0  0  0  0  0  0  0  0  0
   16.9618   26.9481  197.5726 C   0  0  0  0  0  0  0  0  0  0  0  0
   16.6612   28.1398  196.8122 N   0  0  0  0  0  4  0  0  0  0  0  0
   15.2375   28.3185  196.7502 C   0  0  0  0  0  0  0  0  0  0  0  0
   14.5018   27.1030  196.2372 C   0  0  0  0  0  0  0  0  0  0  0  0
   13.2916   26.8866  197.1349 C   0  0  0  0  0  0  0  0  0  0  0  0
   12.2339   27.6658  196.6723 O   0  0  0  0  0  0  0  0  0  0  0  0
   10.9748   27.2310  196.3688 C   0  0  0  0  0  0  0  0  0  0  0  0
    9.9058   28.0072  196.7637 C   0  0  0  0  0  0  0  0  0  0  0  0
    8.6213   27.5955  196.4730 C   0  0  0  0  0  0  0  0  0  0  0  0
   10.1440   29.2029  197.4549 O   0  0  0  0  0  0  0  0  0  0  0  0
    9.1040   29.7268  198.2578 C   0  0  0  0  0  0  0  0  0  0  0  0
   10.7012   26.0491  195.6838 C   0  0  0  0  0  0  0  0  0  0  0  0
    9.4145   25.6478  195.3987 C   0  0  0  0  0  0  0  0  0  0  0  0
    8.3492   26.4173  195.7901 C   0  0  0  0  0  0  0  0  0  0  0  0
    7.0904   26.0320  195.5173 N   0  0  0  0  0  0  0  0  0  0  0  0
    6.8093   24.8944  194.8592 C   0  0  0  0  0  0  0  0  0  0  0  0
    7.8376   24.1440  194.4769 N   0  0  0  0  0  0  0  0  0  0  0  0
    9.1366   24.4657  194.7151 C   0  0  0  0  0  0  0  0  0  0  0  0
   10.1880   23.6405  194.2612 N   0  0  0  0  0  0  0  0  0  0  0  0
    9.9957   22.6673  193.2553 C   0  0  0  0  0  0  0  0  0  0  0  0
    9.1708   22.8487  192.1803 C   0  0  0  0  0  0  0  0  0  0  0  0
    9.0200   21.8660  191.1950 C   0  0  0  0  0  0  0  0  0  0  0  0
    7.9560   22.1123  189.8172 Cl  0  0  0  0  0  0  0  0  0  0  0  0
    9.6975   20.6736  191.2690 C   0  0  0  0  0  0  0  0  0  0  0  0
    9.5545   19.7191  190.3169 F   0  0  0  0  0  0  0  0  0  0  0  0
   10.5308   20.4749  192.3441 C   0  0  0  0  0  0  0  0  0  0  0  0
   10.6780   21.4409  193.3107 C   0  0  0  0  0  0  0  0  0  0  0  0
 20 19  2  0
 20 21  1  0
 18 13  1  0
 18 17  2  0
 18 19  1  0
 17 16  1  0
 17 22  1  0
 22 21  2  0
 22 23  1  0
 15 14  1  0
 30 28  1  0
 30 31  2  0
 31 24  1  0
 25 24  2  0
 25 26  1  0
 13 12  2  0
 16 11  2  0
  8  7  1  0
  8  9  1  0
  9 10  1  0
  2  1  1  0
  2  3  1  0
  4  3  1  0
  4  5  1  0
  7  6  1  0
  1  6  1  0
  5  6  1  0
 28 26  2  0
 28 29  1  0
 26 27  1  0
 24 23  1  0
 12 11  1  0
 12 14  1  0
 11 10  1  0
M  CHG  1   6   1
M  END
$$$$
