
     RDKit          3D

 31 34  0  0  0  0  0  0  0  0999 V2000
   17.9625   28.8186  197.4400 C   0  0  0  0  0  0  0  0  0  0  0  0
   19.3047   28.8333  196.7312 C   0  0  0  0  0  0  0  0  0  0  0  0
   19.6875   27.5606  196.3823 O   0  0  0  0  0  0  0  0  0  0  0  0
   18.8343   26.5584  196.7670 C   0  0  0  0  0  0  0  0  0  0  0  0
   17.3943   26.7991  196.3688 C   0  0  0  0  0  0  0  0  0  0  0  0
   16.9993   28.1738  196.5765 N   0  0  0  0  0  4  0  0  0  0  0  0
   15.6930   28.2090  197.1723 C   0  0  0  0  0  0  0  0  0  0  0  0
   14.5909   28.5117  196.1846 C   0  0  0  0  0  0  0  0  0  0  0  0
   13.4855   27.4880  196.4029 C   0  0  0  0  0  0  0  0  0  0  0  0
   12.2579   28.1442  196.4525 O   0  0  0  0  0  0  0  0  0  0  0  0
   11.0465   27.6331  196.0815 C   0  0  0  0  0  0  0  0  0  0  0  0
    9.9231   28.4045  196.2915 C   0  0  0  0  0  0  0  0  0  0  0  0
    8.6845   27.9167  195.9283 C   0  0  0  0  0  0  0  0  0  0  0  0
   10.0602   29.6731  196.8714 O   0  0  0  0  0  0  0  0  0  0  0  0
    9.0045   30.1529  197.6813 C   0  0  0  0  0  0  0  0  0  0  0  0
   10.8732   26.3776  195.5030 C   0  0  0  0  0  0  0  0  0  0  0  0
    9.6316   25.9006  195.1440 C   0  0  0  0  0  0  0  0  0  0  0  0
    8.5124   26.6651  195.3516 C   0  0  0  0  0  0  0  0  0  0  0  0
    7.2970   26.2064  195.0058 N   0  0  0  0  0  0  0  0  0  0  0  0
    7.1124   24.9974  194.4485 C   0  0  0  0  0  0  0  0  0  0  0  0
    8.1933   24.2514  194.2445 N   0  0  0  0  0  0  0  0  0  0  0  0
    9.4539   24.6448  194.5665 C   0  0  0  0  0  0  0  0  0  0  0  0
   10.5668   23.8179  194.3018 N   0  0  0  0  0  0  0  0  0  0  0  0
   10.4970   22.7350  193.3973 C   0  0  0  0  0  0  0  0  0  0  0  0
    9.3226   22.2501  192.8926 C   0  0  0  0  0  0  0  0  0  0  0  0
    9.2964   21.1853  191.9844 C   0  0  0  0  0  0  0  0  0  0  0  0
    7.7789   20.5717  191.3427 Cl  0  0  0  0  0  0  0  0  0  0  0  0
   10.4551   20.5812  191.5619 C   0  0  0  0  0  0  0  0  0  0  0  0
   10.4343   19.5496  190.6823 F   0  0  0  0  0  0  0  0  0  0  0  0
   11.6449   21.0562  192.0603 C   0  0  0  0  0  0  0  0  0  0  0  0
   11.6691   22.1020  192.9517 C   0  0  0  0  0  0  0  0  0  0  0  0
 20 19  2  0
 20 21  1  0
 18 13  1  0
 18 17  2  0
 18 19  1  0
 17 16  1  0
 17 22  1  0
 22 21  2  0
 22 23  1  0
 15 14  1  0
 30 28  1  0
 30 31  2  0
 31 24  1  0
 25 24  2  0
 25 26  1  0
 13 12  2  0
 16 11  2  0
  8  7  1  0
  8  9  1  0
  9 10  1  0
  2  1  1  0
  2  3  1  0
  4  3  1  0
  4  5  1  0
  7  6  1  0
  1  6  1  0
  5  6  1  0
 28 26  2  0
 28 29  1  0
 26 27  1  0
 24 23  1  0
 12 11  1  0
 12 14  1  0
 11 10  1  0
M  CHG  1   6   1
M  END
$$$$
