
     RDKit          3D

 31 34  0  0  0  0  0  0  0  0999 V2000
   17.7528   28.2968  196.0883 C   0  0  0  0  0  0  0  0  0  0  0  0
   19.0630   27.5421  196.2214 C   0  0  0  0  0  0  0  0  0  0  0  0
   19.5783   27.6762  197.4882 O   0  0  0  0  0  0  0  0  0  0  0  0
   18.8569   28.4722  198.3404 C   0  0  0  0  0  0  0  0  0  0  0  0
   17.3877   28.1158  198.4084 C   0  0  0  0  0  0  0  0  0  0  0  0
   16.8445   27.8136  197.1035 N   0  0  0  0  0  4  0  0  0  0  0  0
   15.5609   28.4426  196.9649 C   0  0  0  0  0  0  0  0  0  0  0  0
   14.7301   27.8698  195.8408 C   0  0  0  0  0  0  0  0  0  0  0  0
   13.6926   26.9454  196.4623 C   0  0  0  0  0  0  0  0  0  0  0  0
   12.5031   27.6478  196.6413 O   0  0  0  0  0  0  0  0  0  0  0  0
   11.2744   27.3053  196.1521 C   0  0  0  0  0  0  0  0  0  0  0  0
   10.2101   28.1382  196.4255 C   0  0  0  0  0  0  0  0  0  0  0  0
    8.9559   27.8201  195.9462 C   0  0  0  0  0  0  0  0  0  0  0  0
   10.4222   29.2955  197.1871 O   0  0  0  0  0  0  0  0  0  0  0  0
    9.3426   30.1954  197.3461 C   0  0  0  0  0  0  0  0  0  0  0  0
   11.0273   26.1640  195.3922 C   0  0  0  0  0  0  0  0  0  0  0  0
    9.7708   25.8562  194.9186 C   0  0  0  0  0  0  0  0  0  0  0  0
    8.7102   26.6823  195.1888 C   0  0  0  0  0  0  0  0  0  0  0  0
    7.4806   26.3883  194.7318 N   0  0  0  0  0  0  0  0  0  0  0  0
    7.2250   25.2909  193.9992 C   0  0  0  0  0  0  0  0  0  0  0  0
    8.2489   24.4860  193.7337 N   0  0  0  0  0  0  0  0  0  0  0  0
    9.5192   24.7149  194.1596 C   0  0  0  0  0  0  0  0  0  0  0  0
   10.5713   23.8359  193.8235 N   0  0  0  0  0  0  0  0  0  0  0  0
   10.4151   22.8142  192.8604 C   0  0  0  0  0  0  0  0  0  0  0  0
    9.3767   22.7692  191.9724 C   0  0  0  0  0  0  0  0  0  0  0  0
    9.2663   21.7484  191.0211 C   0  0  0  0  0  0  0  0  0  0  0  0
    7.9257   21.7026  189.8845 Cl  0  0  0  0  0  0  0  0  0  0  0  0
   10.2011   20.7454  190.9413 C   0  0  0  0  0  0  0  0  0  0  0  0
   10.0981   19.7548  190.0214 F   0  0  0  0  0  0  0  0  0  0  0  0
   11.2515   20.7754  191.8275 C   0  0  0  0  0  0  0  0  0  0  0  0
   11.3587   21.7786  192.7608 C   0  0  0  0  0  0  0  0  0  0  0  0
 20 19  2  0
 20 21  1  0
 18 13  1  0
 18 17  2  0
 18 19  1  0
 17 16  1  0
 17 22  1  0
 22 21  2  0
 22 23  1  0
 15 14  1  0
 30 28  1  0
 30 31  2  0
 31 24  1  0
 25 24  2  0
 25 26  1  0
 13 12  2  0
 16 11  2  0
  8  7  1  0
  8  9  1  0
  9 10  1  0
  2  1  1  0
  2  3  1  0
  4  3  1  0
  4  5  1  0
  7  6  1  0
  1  6  1  0
  5  6  1  0
 28 26  2  0
 28 29  1  0
 26 27  1  0
 24 23  1  0
 12 11  1  0
 12 14  1  0
 11 10  1  0
M  CHG  1   6   1
M  END
$$$$
