
     RDKit          3D

 31 34  0  0  0  0  0  0  0  0999 V2000
   17.6274   28.3490  197.6562 C   0  0  0  0  0  0  0  0  0  0  0  0
   19.1223   28.0972  197.5805 C   0  0  0  0  0  0  0  0  0  0  0  0
   19.4106   26.7802  197.8461 O   0  0  0  0  0  0  0  0  0  0  0  0
   18.3350   25.9893  198.1590 C   0  0  0  0  0  0  0  0  0  0  0  0
   17.1991   26.0857  197.1638 C   0  0  0  0  0  0  0  0  0  0  0  0
   16.9674   27.4477  196.7391 N   0  0  0  0  0  4  0  0  0  0  0  0
   15.5546   27.7054  196.7162 C   0  0  0  0  0  0  0  0  0  0  0  0
   14.8542   27.1036  195.5208 C   0  0  0  0  0  0  0  0  0  0  0  0
   13.5928   26.4172  196.0259 C   0  0  0  0  0  0  0  0  0  0  0  0
   12.5148   27.2900  195.8982 O   0  0  0  0  0  0  0  0  0  0  0  0
   11.2147   26.9473  195.6560 C   0  0  0  0  0  0  0  0  0  0  0  0
   10.2228   27.7656  196.1537 C   0  0  0  0  0  0  0  0  0  0  0  0
    8.8996   27.4468  195.9269 C   0  0  0  0  0  0  0  0  0  0  0  0
   10.5776   28.9089  196.8826 O   0  0  0  0  0  0  0  0  0  0  0  0
    9.5473   29.7954  197.2744 C   0  0  0  0  0  0  0  0  0  0  0  0
   10.8259   25.8196  194.9361 C   0  0  0  0  0  0  0  0  0  0  0  0
    9.5015   25.5111  194.7155 C   0  0  0  0  0  0  0  0  0  0  0  0
    8.5126   26.3226  195.2092 C   0  0  0  0  0  0  0  0  0  0  0  0
    7.2178   26.0278  194.9999 N   0  0  0  0  0  0  0  0  0  0  0  0
    6.8260   24.9434  194.3093 C   0  0  0  0  0  0  0  0  0  0  0  0
    7.7797   24.1526  193.8280 N   0  0  0  0  0  0  0  0  0  0  0  0
    9.1085   24.3834  193.9973 C   0  0  0  0  0  0  0  0  0  0  0  0
   10.0761   23.5202  193.4397 N   0  0  0  0  0  0  0  0  0  0  0  0
    9.7558   22.5926  192.4235 C   0  0  0  0  0  0  0  0  0  0  0  0
   10.2909   21.3364  192.3550 C   0  0  0  0  0  0  0  0  0  0  0  0
    9.9349   20.4397  191.3410 C   0  0  0  0  0  0  0  0  0  0  0  0
   10.6304   18.8267  191.2648 Cl  0  0  0  0  0  0  0  0  0  0  0  0
    9.0295   20.7874  190.3686 C   0  0  0  0  0  0  0  0  0  0  0  0
    8.6817   19.9219  189.3846 F   0  0  0  0  0  0  0  0  0  0  0  0
    8.4823   22.0473  190.4225 C   0  0  0  0  0  0  0  0  0  0  0  0
    8.8327   22.9266  191.4190 C   0  0  0  0  0  0  0  0  0  0  0  0
 20 19  2  0
 20 21  1  0
 18 13  1  0
 18 17  2  0
 18 19  1  0
 17 16  1  0
 17 22  1  0
 22 21  2  0
 22 23  1  0
 15 14  1  0
 30 28  1  0
 30 31  2  0
 31 24  1  0
 25 24  2  0
 25 26  1  0
 13 12  2  0
 16 11  2  0
  8  7  1  0
  8  9  1  0
  9 10  1  0
  2  1  1  0
  2  3  1  0
  4  3  1  0
  4  5  1  0
  7  6  1  0
  1  6  1  0
  5  6  1  0
 28 26  2  0
 28 29  1  0
 26 27  1  0
 24 23  1  0
 12 11  1  0
 12 14  1  0
 11 10  1  0
M  CHG  1   6   1
M  END
$$$$
