
     RDKit          3D

 31 34  0  0  0  0  0  0  0  0999 V2000
   25.6097  -29.0969  -43.2318 C   0  0  0  0  0  0  0  0  0  0  0  0
   25.7597  -30.2507  -44.1966 C   0  0  0  0  0  0  0  0  0  0  0  0
   26.2949  -31.3867  -43.5605 O   0  0  0  0  0  0  0  0  0  0  0  0
   25.5036  -31.7190  -42.4404 C   0  0  0  0  0  0  0  0  0  0  0  0
   25.4546  -30.5882  -41.4364 C   0  0  0  0  0  0  0  0  0  0  0  0
   26.2093  -29.4884  -41.9759 N   0  0  0  0  0  4  0  0  0  0  0  0
   26.3197  -28.3799  -41.0539 C   0  0  0  0  0  0  0  0  0  0  0  0
   27.7364  -27.8492  -40.9783 C   0  0  0  0  0  0  0  0  0  0  0  0
   27.7715  -26.7918  -39.9038 C   0  0  0  0  0  0  0  0  0  0  0  0
   28.8636  -26.9097  -39.0512 O   0  0  0  0  0  0  0  0  0  0  0  0
   29.2732  -26.0282  -38.0825 C   0  0  0  0  0  0  0  0  0  0  0  0
   30.0866  -26.5320  -37.0718 C   0  0  0  0  0  0  0  0  0  0  0  0
   30.5482  -25.7216  -36.0531 C   0  0  0  0  0  0  0  0  0  0  0  0
   30.4560  -27.8654  -37.0599 O   0  0  0  0  0  0  0  0  0  0  0  0
   31.3727  -28.3274  -36.0947 C   0  0  0  0  0  0  0  0  0  0  0  0
   28.9264  -24.6959  -38.0609 C   0  0  0  0  0  0  0  0  0  0  0  0
   29.3729  -23.8638  -37.0548 C   0  0  0  0  0  0  0  0  0  0  0  0
   30.1942  -24.3808  -36.0373 C   0  0  0  0  0  0  0  0  0  0  0  0
   30.6045  -23.5610  -35.0750 N   0  0  0  0  0  0  0  0  0  0  0  0
   30.2594  -22.2587  -35.0442 C   0  0  0  0  0  0  0  0  0  0  0  0
   29.4730  -21.7916  -36.0297 N   0  0  0  0  0  0  0  0  0  0  0  0
   29.0093  -22.5395  -37.0424 C   0  0  0  0  0  0  0  0  0  0  0  0
   28.1874  -22.0178  -38.0593 N   0  0  0  0  0  0  0  0  0  0  0  0
   27.8994  -20.6414  -38.2222 C   0  0  0  0  0  0  0  0  0  0  0  0
   28.8988  -19.6907  -38.1890 C   0  0  0  0  0  0  0  0  0  0  0  0
   28.6757  -18.3382  -38.3481 C   0  0  0  0  0  0  0  0  0  0  0  0
   29.9591  -17.1494  -38.3070 Cl  0  0  0  0  0  0  0  0  0  0  0  0
   27.3805  -17.8665  -38.5552 C   0  0  0  0  0  0  0  0  0  0  0  0
   27.1443  -16.5407  -38.7145 F   0  0  0  0  0  0  0  0  0  0  0  0
   26.3759  -18.8058  -38.5897 C   0  0  0  0  0  0  0  0  0  0  0  0
   26.6101  -20.1622  -38.4296 C   0  0  0  0  0  0  0  0  0  0  0  0
 20 19  2  0
 20 21  1  0
 18 13  1  0
 18 17  2  0
 18 19  1  0
 17 16  1  0
 17 22  1  0
 22 21  2  0
 22 23  1  0
 15 14  1  0
 30 28  1  0
 30 31  2  0
 31 24  1  0
 25 24  2  0
 25 26  1  0
 13 12  2  0
 16 11  2  0
  8  7  1  0
  8  9  1  0
  9 10  1  0
  2  1  1  0
  2  3  1  0
  4  3  1  0
  4  5  1  0
  7  6  1  0
  1  6  1  0
  5  6  1  0
 28 26  2  0
 28 29  1  0
 26 27  1  0
 24 23  1  0
 12 11  1  0
 12 14  1  0
 11 10  1  0
M  CHG  1   6   1
M  END
$$$$
