
     RDKit          3D

 31 34  0  0  0  0  0  0  0  0999 V2000
   26.3177  -30.2884  -41.8432 C   0  0  0  0  0  0  0  0  0  0  0  0
   25.4836  -30.5796  -43.0697 C   0  0  0  0  0  0  0  0  0  0  0  0
   26.1440  -30.1809  -44.2472 O   0  0  0  0  0  0  0  0  0  0  0  0
   27.4173  -30.7864  -44.3040 C   0  0  0  0  0  0  0  0  0  0  0  0
   28.2745  -30.3957  -43.1201 C   0  0  0  0  0  0  0  0  0  0  0  0
   27.4851  -29.5481  -42.2666 N   0  0  0  0  0  4  0  0  0  0  0  0
   28.2367  -29.0258  -41.1470 C   0  0  0  0  0  0  0  0  0  0  0  0
   27.4162  -28.0567  -40.3210 C   0  0  0  0  0  0  0  0  0  0  0  0
   28.3016  -26.8852  -39.9781 C   0  0  0  0  0  0  0  0  0  0  0  0
   29.0214  -27.0651  -38.8021 O   0  0  0  0  0  0  0  0  0  0  0  0
   29.4733  -26.1007  -37.9368 C   0  0  0  0  0  0  0  0  0  0  0  0
   30.3515  -26.5088  -36.9372 C   0  0  0  0  0  0  0  0  0  0  0  0
   30.8592  -25.6103  -36.0192 C   0  0  0  0  0  0  0  0  0  0  0  0
   30.7409  -27.8326  -36.8352 O   0  0  0  0  0  0  0  0  0  0  0  0
   31.6779  -28.2111  -35.8533 C   0  0  0  0  0  0  0  0  0  0  0  0
   29.1084  -24.7749  -38.0067 C   0  0  0  0  0  0  0  0  0  0  0  0
   29.6000  -23.8560  -37.1022 C   0  0  0  0  0  0  0  0  0  0  0  0
   30.4866  -24.2767  -36.0953 C   0  0  0  0  0  0  0  0  0  0  0  0
   30.9398  -23.3742  -35.2311 N   0  0  0  0  0  0  0  0  0  0  0  0
   30.5775  -22.0775  -35.2895 C   0  0  0  0  0  0  0  0  0  0  0  0
   29.7283  -21.7035  -36.2626 N   0  0  0  0  0  0  0  0  0  0  0  0
   29.2179  -22.5392  -37.1797 C   0  0  0  0  0  0  0  0  0  0  0  0
   28.3306  -22.1138  -38.1865 N   0  0  0  0  0  0  0  0  0  0  0  0
   28.0351  -20.7579  -38.4660 C   0  0  0  0  0  0  0  0  0  0  0  0
   29.0071  -19.7816  -38.3905 C   0  0  0  0  0  0  0  0  0  0  0  0
   28.7761  -18.4477  -38.6580 C   0  0  0  0  0  0  0  0  0  0  0  0
   30.0252  -17.2261  -38.5607 Cl  0  0  0  0  0  0  0  0  0  0  0  0
   27.5010  -18.0230  -39.0277 C   0  0  0  0  0  0  0  0  0  0  0  0
   27.2575  -16.7161  -39.2950 F   0  0  0  0  0  0  0  0  0  0  0  0
   26.5237  -18.9882  -39.1056 C   0  0  0  0  0  0  0  0  0  0  0  0
   26.7657  -20.3256  -38.8357 C   0  0  0  0  0  0  0  0  0  0  0  0
 20 19  2  0
 20 21  1  0
 18 13  1  0
 18 17  2  0
 18 19  1  0
 17 16  1  0
 17 22  1  0
 22 21  2  0
 22 23  1  0
 15 14  1  0
 30 28  1  0
 30 31  2  0
 31 24  1  0
 25 24  2  0
 25 26  1  0
 13 12  2  0
 16 11  2  0
  8  7  1  0
  8  9  1  0
  9 10  1  0
  2  1  1  0
  2  3  1  0
  4  3  1  0
  4  5  1  0
  7  6  1  0
  1  6  1  0
  5  6  1  0
 28 26  2  0
 28 29  1  0
 26 27  1  0
 24 23  1  0
 12 11  1  0
 12 14  1  0
 11 10  1  0
M  CHG  1   6   1
M  END
$$$$
