
     RDKit          3D

 31 34  0  0  0  0  0  0  0  0999 V2000
   25.6002  -28.4879  -42.7095 C   0  0  0  0  0  0  0  0  0  0  0  0
   24.5310  -29.2952  -43.4093 C   0  0  0  0  0  0  0  0  0  0  0  0
   23.3808  -29.4284  -42.6088 O   0  0  0  0  0  0  0  0  0  0  0  0
   22.9246  -28.1513  -42.2191 C   0  0  0  0  0  0  0  0  0  0  0  0
   23.9733  -27.4016  -41.4271 C   0  0  0  0  0  0  0  0  0  0  0  0
   25.1485  -28.2289  -41.3607 N   0  0  0  0  0  4  0  0  0  0  0  0
   26.1896  -27.6568  -40.5361 C   0  0  0  0  0  0  0  0  0  0  0  0
   27.5382  -27.6946  -41.2249 C   0  0  0  0  0  0  0  0  0  0  0  0
   28.3358  -26.5131  -40.7332 C   0  0  0  0  0  0  0  0  0  0  0  0
   29.1295  -26.8058  -39.6298 O   0  0  0  0  0  0  0  0  0  0  0  0
   29.3961  -26.0033  -38.5489 C   0  0  0  0  0  0  0  0  0  0  0  0
   30.0733  -26.5845  -37.4810 C   0  0  0  0  0  0  0  0  0  0  0  0
   30.3855  -25.8567  -36.3495 C   0  0  0  0  0  0  0  0  0  0  0  0
   30.4533  -27.9143  -37.5243 O   0  0  0  0  0  0  0  0  0  0  0  0
   31.3116  -28.4278  -36.5318 C   0  0  0  0  0  0  0  0  0  0  0  0
   29.0340  -24.6772  -38.4698 C   0  0  0  0  0  0  0  0  0  0  0  0
   29.3327  -23.9268  -37.3510 C   0  0  0  0  0  0  0  0  0  0  0  0
   30.0170  -24.5218  -36.2764 C   0  0  0  0  0  0  0  0  0  0  0  0
   30.2858  -23.7802  -35.2065 N   0  0  0  0  0  0  0  0  0  0  0  0
   29.9245  -22.4848  -35.1205 C   0  0  0  0  0  0  0  0  0  0  0  0
   29.2711  -21.9421  -36.1627 N   0  0  0  0  0  0  0  0  0  0  0  0
   28.9554  -22.6080  -37.2838 C   0  0  0  0  0  0  0  0  0  0  0  0
   28.2703  -22.0084  -38.3575 N   0  0  0  0  0  0  0  0  0  0  0  0
   27.9733  -20.6268  -38.4399 C   0  0  0  0  0  0  0  0  0  0  0  0
   28.9633  -19.6723  -38.3274 C   0  0  0  0  0  0  0  0  0  0  0  0
   28.7313  -18.3142  -38.4061 C   0  0  0  0  0  0  0  0  0  0  0  0
   30.0030  -17.1206  -38.2653 Cl  0  0  0  0  0  0  0  0  0  0  0  0
   27.4362  -17.8405  -38.6093 C   0  0  0  0  0  0  0  0  0  0  0  0
   27.1913  -16.5092  -38.6902 F   0  0  0  0  0  0  0  0  0  0  0  0
   26.4409  -18.7835  -38.7224 C   0  0  0  0  0  0  0  0  0  0  0  0
   26.6841  -20.1454  -38.6427 C   0  0  0  0  0  0  0  0  0  0  0  0
 20 19  2  0
 20 21  1  0
 18 13  1  0
 18 17  2  0
 18 19  1  0
 17 16  1  0
 17 22  1  0
 22 21  2  0
 22 23  1  0
 15 14  1  0
 30 28  1  0
 30 31  2  0
 31 24  1  0
 25 24  2  0
 25 26  1  0
 13 12  2  0
 16 11  2  0
  8  7  1  0
  8  9  1  0
  9 10  1  0
  2  1  1  0
  2  3  1  0
  4  3  1  0
  4  5  1  0
  7  6  1  0
  1  6  1  0
  5  6  1  0
 28 26  2  0
 28 29  1  0
 26 27  1  0
 24 23  1  0
 12 11  1  0
 12 14  1  0
 11 10  1  0
M  CHG  1   6   1
M  END
$$$$
