
     RDKit          3D

 31 34  0  0  0  0  0  0  0  0999 V2000
   26.8436  -29.4830  -42.6894 C   0  0  0  0  0  0  0  0  0  0  0  0
   25.7615  -30.3769  -43.2502 C   0  0  0  0  0  0  0  0  0  0  0  0
   24.5718  -29.6610  -43.4815 O   0  0  0  0  0  0  0  0  0  0  0  0
   24.8402  -28.5522  -44.3120 C   0  0  0  0  0  0  0  0  0  0  0  0
   25.8472  -27.6145  -43.6828 C   0  0  0  0  0  0  0  0  0  0  0  0
   26.2574  -28.1875  -42.4285 N   0  0  0  0  0  4  0  0  0  0  0  0
   27.1475  -27.3248  -41.6838 C   0  0  0  0  0  0  0  0  0  0  0  0
   28.0176  -28.1083  -40.7227 C   0  0  0  0  0  0  0  0  0  0  0  0
   28.1057  -27.3204  -39.4399 C   0  0  0  0  0  0  0  0  0  0  0  0
   29.3712  -26.7957  -39.2022 O   0  0  0  0  0  0  0  0  0  0  0  0
   29.7283  -25.8477  -38.2764 C   0  0  0  0  0  0  0  0  0  0  0  0
   30.5409  -26.2638  -37.2260 C   0  0  0  0  0  0  0  0  0  0  0  0
   30.9516  -25.3820  -36.2455 C   0  0  0  0  0  0  0  0  0  0  0  0
   30.9607  -27.5791  -37.1348 O   0  0  0  0  0  0  0  0  0  0  0  0
   31.8212  -27.9664  -36.0884 C   0  0  0  0  0  0  0  0  0  0  0  0
   29.3304  -24.5308  -38.3338 C   0  0  0  0  0  0  0  0  0  0  0  0
   29.7255  -23.6286  -37.3674 C   0  0  0  0  0  0  0  0  0  0  0  0
   30.5464  -24.0573  -36.3093 C   0  0  0  0  0  0  0  0  0  0  0  0
   30.9066  -23.1711  -35.3864 N   0  0  0  0  0  0  0  0  0  0  0  0
   30.5114  -21.8836  -35.4329 C   0  0  0  0  0  0  0  0  0  0  0  0
   29.7267  -21.5017  -36.4558 N   0  0  0  0  0  0  0  0  0  0  0  0
   29.3114  -22.3209  -37.4337 C   0  0  0  0  0  0  0  0  0  0  0  0
   28.4897  -21.8876  -38.4915 N   0  0  0  0  0  0  0  0  0  0  0  0
   28.1904  -20.5308  -38.7624 C   0  0  0  0  0  0  0  0  0  0  0  0
   29.1682  -19.5582  -38.7197 C   0  0  0  0  0  0  0  0  0  0  0  0
   28.9337  -18.2235  -38.9806 C   0  0  0  0  0  0  0  0  0  0  0  0
   30.1900  -17.0068  -38.9253 Cl  0  0  0  0  0  0  0  0  0  0  0  0
   27.6488  -17.7942  -39.3088 C   0  0  0  0  0  0  0  0  0  0  0  0
   27.4018  -16.4866  -39.5691 F   0  0  0  0  0  0  0  0  0  0  0  0
   26.6657  -18.7556  -39.3538 C   0  0  0  0  0  0  0  0  0  0  0  0
   26.9113  -20.0938  -39.0908 C   0  0  0  0  0  0  0  0  0  0  0  0
 20 19  2  0
 20 21  1  0
 18 13  1  0
 18 17  2  0
 18 19  1  0
 17 16  1  0
 17 22  1  0
 22 21  2  0
 22 23  1  0
 15 14  1  0
 30 28  1  0
 30 31  2  0
 31 24  1  0
 25 24  2  0
 25 26  1  0
 13 12  2  0
 16 11  2  0
  8  7  1  0
  8  9  1  0
  9 10  1  0
  2  1  1  0
  2  3  1  0
  4  3  1  0
  4  5  1  0
  7  6  1  0
  1  6  1  0
  5  6  1  0
 28 26  2  0
 28 29  1  0
 26 27  1  0
 24 23  1  0
 12 11  1  0
 12 14  1  0
 11 10  1  0
M  CHG  1   6   1
M  END
$$$$
