
     RDKit          3D

 31 34  0  0  0  0  0  0  0  0999 V2000
   29.1128  -30.0629  -43.0875 C   0  0  0  0  0  0  0  0  0  0  0  0
   28.5077  -31.1473  -43.9492 C   0  0  0  0  0  0  0  0  0  0  0  0
   27.1602  -31.3783  -43.6142 O   0  0  0  0  0  0  0  0  0  0  0  0
   26.4401  -30.1670  -43.6861 C   0  0  0  0  0  0  0  0  0  0  0  0
   26.9971  -29.1293  -42.7363 C   0  0  0  0  0  0  0  0  0  0  0  0
   28.1408  -29.7038  -42.0792 N   0  0  0  0  0  4  0  0  0  0  0  0
   28.6991  -28.8355  -41.0666 C   0  0  0  0  0  0  0  0  0  0  0  0
   27.6719  -28.4589  -40.0190 C   0  0  0  0  0  0  0  0  0  0  0  0
   28.0665  -27.1179  -39.4534 C   0  0  0  0  0  0  0  0  0  0  0  0
   29.1199  -27.1906  -38.5488 O   0  0  0  0  0  0  0  0  0  0  0  0
   29.6039  -26.1936  -37.7396 C   0  0  0  0  0  0  0  0  0  0  0  0
   30.5593  -26.5540  -36.7939 C   0  0  0  0  0  0  0  0  0  0  0  0
   31.1043  -25.6202  -35.9345 C   0  0  0  0  0  0  0  0  0  0  0  0
   30.9903  -27.8645  -36.6882 O   0  0  0  0  0  0  0  0  0  0  0  0
   31.9236  -28.2144  -35.6922 C   0  0  0  0  0  0  0  0  0  0  0  0
   29.1994  -24.8796  -37.8151 C   0  0  0  0  0  0  0  0  0  0  0  0
   29.7269  -23.9261  -36.9685 C   0  0  0  0  0  0  0  0  0  0  0  0
   30.6915  -24.2987  -36.0158 C   0  0  0  0  0  0  0  0  0  0  0  0
   31.1784  -23.3635  -35.2064 N   0  0  0  0  0  0  0  0  0  0  0  0
   30.7781  -22.0783  -35.2699 C   0  0  0  0  0  0  0  0  0  0  0  0
   29.8544  -21.7506  -36.1903 N   0  0  0  0  0  0  0  0  0  0  0  0
   29.3051  -22.6217  -37.0501 C   0  0  0  0  0  0  0  0  0  0  0  0
   28.3397  -22.2444  -38.0028 N   0  0  0  0  0  0  0  0  0  0  0  0
   27.9040  -20.9137  -38.2103 C   0  0  0  0  0  0  0  0  0  0  0  0
   27.8057  -20.0196  -37.1640 C   0  0  0  0  0  0  0  0  0  0  0  0
   27.3933  -18.7109  -37.3102 C   0  0  0  0  0  0  0  0  0  0  0  0
   27.2804  -17.5920  -35.9695 Cl  0  0  0  0  0  0  0  0  0  0  0  0
   27.0468  -18.2274  -38.5707 C   0  0  0  0  0  0  0  0  0  0  0  0
   26.6406  -16.9437  -38.7318 F   0  0  0  0  0  0  0  0  0  0  0  0
   27.1405  -19.1106  -39.6215 C   0  0  0  0  0  0  0  0  0  0  0  0
   27.5565  -20.4230  -39.4647 C   0  0  0  0  0  0  0  0  0  0  0  0
 20 19  2  0
 20 21  1  0
 18 13  1  0
 18 17  2  0
 18 19  1  0
 17 16  1  0
 17 22  1  0
 22 21  2  0
 22 23  1  0
 15 14  1  0
 30 28  1  0
 30 31  2  0
 31 24  1  0
 25 24  2  0
 25 26  1  0
 13 12  2  0
 16 11  2  0
  8  7  1  0
  8  9  1  0
  9 10  1  0
  2  1  1  0
  2  3  1  0
  4  3  1  0
  4  5  1  0
  7  6  1  0
  1  6  1  0
  5  6  1  0
 28 26  2  0
 28 29  1  0
 26 27  1  0
 24 23  1  0
 12 11  1  0
 12 14  1  0
 11 10  1  0
M  CHG  1   6   1
M  END
$$$$
