
     RDKit          3D

 31 34  0  0  0  0  0  0  0  0999 V2000
   25.2277  -27.1057  -42.7733 C   0  0  0  0  0  0  0  0  0  0  0  0
   24.5702  -28.0533  -43.7503 C   0  0  0  0  0  0  0  0  0  0  0  0
   25.4814  -29.0147  -44.2265 O   0  0  0  0  0  0  0  0  0  0  0  0
   26.0724  -29.6879  -43.1363 C   0  0  0  0  0  0  0  0  0  0  0  0
   26.8164  -28.7336  -42.2280 C   0  0  0  0  0  0  0  0  0  0  0  0
   26.6421  -27.4042  -42.7499 N   0  0  0  0  0  4  0  0  0  0  0  0
   27.3979  -26.4122  -42.0179 C   0  0  0  0  0  0  0  0  0  0  0  0
   27.3538  -26.6598  -40.5242 C   0  0  0  0  0  0  0  0  0  0  0  0
   28.7665  -26.5703  -40.0041 C   0  0  0  0  0  0  0  0  0  0  0  0
   28.8455  -26.6089  -38.6165 O   0  0  0  0  0  0  0  0  0  0  0  0
   29.3863  -25.6664  -37.7784 C   0  0  0  0  0  0  0  0  0  0  0  0
   30.2416  -26.1236  -36.7802 C   0  0  0  0  0  0  0  0  0  0  0  0
   30.8333  -25.2503  -35.8886 C   0  0  0  0  0  0  0  0  0  0  0  0
   30.5228  -27.4724  -36.6530 O   0  0  0  0  0  0  0  0  0  0  0  0
   29.7665  -28.2625  -35.7646 C   0  0  0  0  0  0  0  0  0  0  0  0
   29.1300  -24.3170  -37.8739 C   0  0  0  0  0  0  0  0  0  0  0  0
   29.7073  -23.4223  -36.9961 C   0  0  0  0  0  0  0  0  0  0  0  0
   30.5700  -23.8926  -35.9903 C   0  0  0  0  0  0  0  0  0  0  0  0
   31.1070  -23.0119  -35.1520 N   0  0  0  0  0  0  0  0  0  0  0  0
   30.8512  -21.6914  -35.2354 C   0  0  0  0  0  0  0  0  0  0  0  0
   30.0223  -21.2701  -36.2066 N   0  0  0  0  0  0  0  0  0  0  0  0
   29.4331  -22.0806  -37.0987 C   0  0  0  0  0  0  0  0  0  0  0  0
   28.5701  -21.6056  -38.1044 N   0  0  0  0  0  0  0  0  0  0  0  0
   28.3728  -20.2358  -38.4023 C   0  0  0  0  0  0  0  0  0  0  0  0
   27.1060  -19.7076  -38.5437 C   0  0  0  0  0  0  0  0  0  0  0  0
   26.8561  -18.3804  -38.8273 C   0  0  0  0  0  0  0  0  0  0  0  0
   25.2405  -17.7304  -38.9979 Cl  0  0  0  0  0  0  0  0  0  0  0  0
   27.9177  -17.4917  -38.9882 C   0  0  0  0  0  0  0  0  0  0  0  0
   27.6894  -16.1842  -39.2659 F   0  0  0  0  0  0  0  0  0  0  0  0
   29.1856  -18.0076  -38.8498 C   0  0  0  0  0  0  0  0  0  0  0  0
   29.4264  -19.3420  -38.5642 C   0  0  0  0  0  0  0  0  0  0  0  0
 20 19  2  0
 20 21  1  0
 18 13  1  0
 18 17  2  0
 18 19  1  0
 17 16  1  0
 17 22  1  0
 22 21  2  0
 22 23  1  0
 15 14  1  0
 30 28  1  0
 30 31  2  0
 31 24  1  0
 25 24  2  0
 25 26  1  0
 13 12  2  0
 16 11  2  0
  8  7  1  0
  8  9  1  0
  9 10  1  0
  2  1  1  0
  2  3  1  0
  4  3  1  0
  4  5  1  0
  7  6  1  0
  1  6  1  0
  5  6  1  0
 28 26  2  0
 28 29  1  0
 26 27  1  0
 24 23  1  0
 12 11  1  0
 12 14  1  0
 11 10  1  0
M  CHG  1   6   1
M  END
$$$$
