
     RDKit          3D

 31 34  0  0  0  0  0  0  0  0999 V2000
   25.0234  -28.2465  -42.9791 C   0  0  0  0  0  0  0  0  0  0  0  0
   24.4285  -29.3304  -43.8486 C   0  0  0  0  0  0  0  0  0  0  0  0
   25.2861  -30.4427  -43.9426 O   0  0  0  0  0  0  0  0  0  0  0  0
   25.6067  -30.9042  -42.6482 C   0  0  0  0  0  0  0  0  0  0  0  0
   26.2984  -29.8357  -41.8301 C   0  0  0  0  0  0  0  0  0  0  0  0
   26.3697  -28.6444  -42.6336 N   0  0  0  0  0  4  0  0  0  0  0  0
   27.1063  -27.5791  -41.9904 C   0  0  0  0  0  0  0  0  0  0  0  0
   27.5507  -27.9646  -40.5946 C   0  0  0  0  0  0  0  0  0  0  0  0
   27.7531  -26.6918  -39.8116 C   0  0  0  0  0  0  0  0  0  0  0  0
   29.0128  -26.5975  -39.2306 O   0  0  0  0  0  0  0  0  0  0  0  0
   29.3970  -25.8027  -38.1799 C   0  0  0  0  0  0  0  0  0  0  0  0
   30.1710  -26.3966  -37.1873 C   0  0  0  0  0  0  0  0  0  0  0  0
   30.6047  -25.6772  -36.0910 C   0  0  0  0  0  0  0  0  0  0  0  0
   30.5279  -27.7307  -37.2724 O   0  0  0  0  0  0  0  0  0  0  0  0
   31.4196  -28.2764  -36.3277 C   0  0  0  0  0  0  0  0  0  0  0  0
   29.0614  -24.4727  -38.0609 C   0  0  0  0  0  0  0  0  0  0  0  0
   29.4807  -23.7305  -36.9759 C   0  0  0  0  0  0  0  0  0  0  0  0
   30.2623  -24.3382  -35.9774 C   0  0  0  0  0  0  0  0  0  0  0  0
   30.6468  -23.6043  -34.9380 N   0  0  0  0  0  0  0  0  0  0  0  0
   30.3124  -22.3049  -34.8123 C   0  0  0  0  0  0  0  0  0  0  0  0
   29.5642  -21.7500  -35.7819 N   0  0  0  0  0  0  0  0  0  0  0  0
   29.1287  -22.4075  -36.8673 C   0  0  0  0  0  0  0  0  0  0  0  0
   28.3466  -21.7952  -37.8648 N   0  0  0  0  0  0  0  0  0  0  0  0
   27.9559  -20.4347  -37.8466 C   0  0  0  0  0  0  0  0  0  0  0  0
   28.2429  -19.5918  -38.9005 C   0  0  0  0  0  0  0  0  0  0  0  0
   27.8810  -18.2606  -38.9380 C   0  0  0  0  0  0  0  0  0  0  0  0
   28.2513  -17.2101  -40.2875 Cl  0  0  0  0  0  0  0  0  0  0  0  0
   27.1857  -17.6985  -37.8687 C   0  0  0  0  0  0  0  0  0  0  0  0
   26.8217  -16.3924  -37.8902 F   0  0  0  0  0  0  0  0  0  0  0  0
   26.8946  -18.5298  -36.8118 C   0  0  0  0  0  0  0  0  0  0  0  0
   27.2617  -19.8657  -36.7839 C   0  0  0  0  0  0  0  0  0  0  0  0
 20 19  2  0
 20 21  1  0
 18 13  1  0
 18 17  2  0
 18 19  1  0
 17 16  1  0
 17 22  1  0
 22 21  2  0
 22 23  1  0
 15 14  1  0
 30 28  1  0
 30 31  2  0
 31 24  1  0
 25 24  2  0
 25 26  1  0
 13 12  2  0
 16 11  2  0
  8  7  1  0
  8  9  1  0
  9 10  1  0
  2  1  1  0
  2  3  1  0
  4  3  1  0
  4  5  1  0
  7  6  1  0
  1  6  1  0
  5  6  1  0
 28 26  2  0
 28 29  1  0
 26 27  1  0
 24 23  1  0
 12 11  1  0
 12 14  1  0
 11 10  1  0
M  CHG  1   6   1
M  END
$$$$
