
     RDKit          3D

 31 34  0  0  0  0  0  0  0  0999 V2000
   25.9561  -29.7868  -42.5667 C   0  0  0  0  0  0  0  0  0  0  0  0
   25.7907  -30.7441  -43.7247 C   0  0  0  0  0  0  0  0  0  0  0  0
   26.6751  -30.4371  -44.7759 O   0  0  0  0  0  0  0  0  0  0  0  0
   27.9984  -30.4045  -44.2872 C   0  0  0  0  0  0  0  0  0  0  0  0
   28.1672  -29.3639  -43.2019 C   0  0  0  0  0  0  0  0  0  0  0  0
   26.8838  -28.7552  -42.9733 N   0  0  0  0  0  4  0  0  0  0  0  0
   26.9420  -27.6670  -42.0228 C   0  0  0  0  0  0  0  0  0  0  0  0
   27.6670  -28.0658  -40.7539 C   0  0  0  0  0  0  0  0  0  0  0  0
   28.0419  -26.8001  -40.0249 C   0  0  0  0  0  0  0  0  0  0  0  0
   28.9461  -27.0089  -38.9894 O   0  0  0  0  0  0  0  0  0  0  0  0
   29.3977  -26.0953  -38.0703 C   0  0  0  0  0  0  0  0  0  0  0  0
   30.2424  -26.5683  -37.0704 C   0  0  0  0  0  0  0  0  0  0  0  0
   30.7470  -25.7244  -36.1005 C   0  0  0  0  0  0  0  0  0  0  0  0
   30.6004  -27.9039  -37.0206 O   0  0  0  0  0  0  0  0  0  0  0  0
   31.4966  -28.3499  -36.0288 C   0  0  0  0  0  0  0  0  0  0  0  0
   29.0632  -24.7598  -38.0875 C   0  0  0  0  0  0  0  0  0  0  0  0
   29.5526  -23.8944  -37.1305 C   0  0  0  0  0  0  0  0  0  0  0  0
   30.4052  -24.3806  -36.1237 C   0  0  0  0  0  0  0  0  0  0  0  0
   30.8568  -23.5288  -35.2086 N   0  0  0  0  0  0  0  0  0  0  0  0
   30.5241  -22.2229  -35.2156 C   0  0  0  0  0  0  0  0  0  0  0  0
   29.7070  -21.7859  -36.1898 N   0  0  0  0  0  0  0  0  0  0  0  0
   29.2011  -22.5671  -37.1561 C   0  0  0  0  0  0  0  0  0  0  0  0
   28.3478  -22.0763  -38.1625 N   0  0  0  0  0  0  0  0  0  0  0  0
   27.9708  -20.7182  -38.2938 C   0  0  0  0  0  0  0  0  0  0  0  0
   28.9106  -19.7081  -38.2783 C   0  0  0  0  0  0  0  0  0  0  0  0
   28.5999  -18.3699  -38.4083 C   0  0  0  0  0  0  0  0  0  0  0  0
   29.8089  -17.1049  -38.3905 Cl  0  0  0  0  0  0  0  0  0  0  0  0
   27.2721  -17.9761  -38.5651 C   0  0  0  0  0  0  0  0  0  0  0  0
   26.9499  -16.6654  -38.6953 F   0  0  0  0  0  0  0  0  0  0  0  0
   26.3263  -18.9751  -38.5815 C   0  0  0  0  0  0  0  0  0  0  0  0
   26.6483  -20.3165  -38.4509 C   0  0  0  0  0  0  0  0  0  0  0  0
 20 19  2  0
 20 21  1  0
 18 13  1  0
 18 17  2  0
 18 19  1  0
 17 16  1  0
 17 22  1  0
 22 21  2  0
 22 23  1  0
 15 14  1  0
 30 28  1  0
 30 31  2  0
 31 24  1  0
 25 24  2  0
 25 26  1  0
 13 12  2  0
 16 11  2  0
  8  7  1  0
  8  9  1  0
  9 10  1  0
  2  1  1  0
  2  3  1  0
  4  3  1  0
  4  5  1  0
  7  6  1  0
  1  6  1  0
  5  6  1  0
 28 26  2  0
 28 29  1  0
 26 27  1  0
 24 23  1  0
 12 11  1  0
 12 14  1  0
 11 10  1  0
M  CHG  1   6   1
M  END
$$$$
