
     RDKit          3D

 31 34  0  0  0  0  0  0  0  0999 V2000
   25.2190  -28.6062  -41.4041 C   0  0  0  0  0  0  0  0  0  0  0  0
   24.0878  -29.5043  -41.8494 C   0  0  0  0  0  0  0  0  0  0  0  0
   24.3658  -30.1036  -43.0924 O   0  0  0  0  0  0  0  0  0  0  0  0
   25.6003  -30.7836  -43.0247 C   0  0  0  0  0  0  0  0  0  0  0  0
   26.7366  -29.8450  -42.6823 C   0  0  0  0  0  0  0  0  0  0  0  0
   26.1787  -28.5339  -42.4830 N   0  0  0  0  0  4  0  0  0  0  0  0
   27.1886  -27.5256  -42.2495 C   0  0  0  0  0  0  0  0  0  0  0  0
   28.0513  -27.8598  -41.0501 C   0  0  0  0  0  0  0  0  0  0  0  0
   28.2338  -26.5938  -40.2514 C   0  0  0  0  0  0  0  0  0  0  0  0
   29.1754  -26.7149  -39.2356 O   0  0  0  0  0  0  0  0  0  0  0  0
   29.5542  -25.7634  -38.3222 C   0  0  0  0  0  0  0  0  0  0  0  0
   30.3174  -26.1930  -37.2406 C   0  0  0  0  0  0  0  0  0  0  0  0
   30.7451  -25.3088  -36.2696 C   0  0  0  0  0  0  0  0  0  0  0  0
   30.6693  -27.5245  -37.1079 O   0  0  0  0  0  0  0  0  0  0  0  0
   31.7847  -27.8770  -36.3223 C   0  0  0  0  0  0  0  0  0  0  0  0
   29.2233  -24.4305  -38.4204 C   0  0  0  0  0  0  0  0  0  0  0  0
   29.6368  -23.5254  -37.4644 C   0  0  0  0  0  0  0  0  0  0  0  0
   30.4074  -23.9678  -36.3746 C   0  0  0  0  0  0  0  0  0  0  0  0
   30.7864  -23.0782  -35.4627 N   0  0  0  0  0  0  0  0  0  0  0  0
   30.4565  -21.7745  -35.5494 C   0  0  0  0  0  0  0  0  0  0  0  0
   29.7187  -21.3797  -36.6019 N   0  0  0  0  0  0  0  0  0  0  0  0
   29.2895  -22.2011  -37.5719 C   0  0  0  0  0  0  0  0  0  0  0  0
   28.5183  -21.7540  -38.6615 N   0  0  0  0  0  0  0  0  0  0  0  0
   28.2730  -20.3916  -38.9571 C   0  0  0  0  0  0  0  0  0  0  0  0
   29.2713  -19.4445  -38.8555 C   0  0  0  0  0  0  0  0  0  0  0  0
   29.0894  -18.1058  -39.1369 C   0  0  0  0  0  0  0  0  0  0  0  0
   30.3712  -16.9219  -39.0058 Cl  0  0  0  0  0  0  0  0  0  0  0  0
   27.8401  -17.6452  -39.5493 C   0  0  0  0  0  0  0  0  0  0  0  0
   27.6450  -16.3332  -39.8308 F   0  0  0  0  0  0  0  0  0  0  0  0
   26.8370  -18.5809  -39.6536 C   0  0  0  0  0  0  0  0  0  0  0  0
   27.0297  -19.9234  -39.3694 C   0  0  0  0  0  0  0  0  0  0  0  0
 20 19  2  0
 20 21  1  0
 18 13  1  0
 18 17  2  0
 18 19  1  0
 17 16  1  0
 17 22  1  0
 22 21  2  0
 22 23  1  0
 15 14  1  0
 30 28  1  0
 30 31  2  0
 31 24  1  0
 25 24  2  0
 25 26  1  0
 13 12  2  0
 16 11  2  0
  8  7  1  0
  8  9  1  0
  9 10  1  0
  2  1  1  0
  2  3  1  0
  4  3  1  0
  4  5  1  0
  7  6  1  0
  1  6  1  0
  5  6  1  0
 28 26  2  0
 28 29  1  0
 26 27  1  0
 24 23  1  0
 12 11  1  0
 12 14  1  0
 11 10  1  0
M  CHG  1   6   1
M  END
$$$$
