
     RDKit          3D

 31 34  0  0  0  0  0  0  0  0999 V2000
   26.7352  -29.5382  -43.0111 C   0  0  0  0  0  0  0  0  0  0  0  0
   25.7132  -30.5235  -43.5301 C   0  0  0  0  0  0  0  0  0  0  0  0
   24.7678  -30.8529  -42.5405 O   0  0  0  0  0  0  0  0  0  0  0  0
   24.1756  -29.6739  -42.0403 C   0  0  0  0  0  0  0  0  0  0  0  0
   25.2045  -28.7486  -41.4285 C   0  0  0  0  0  0  0  0  0  0  0  0
   26.4975  -29.3566  -41.5966 N   0  0  0  0  0  4  0  0  0  0  0  0
   27.5557  -28.6073  -40.9565 C   0  0  0  0  0  0  0  0  0  0  0  0
   27.1179  -27.1996  -40.6083 C   0  0  0  0  0  0  0  0  0  0  0  0
   28.3589  -26.3935  -40.3189 C   0  0  0  0  0  0  0  0  0  0  0  0
   28.9229  -26.6770  -39.0800 O   0  0  0  0  0  0  0  0  0  0  0  0
   29.3526  -25.7869  -38.1280 C   0  0  0  0  0  0  0  0  0  0  0  0
   30.1487  -26.2911  -37.1039 C   0  0  0  0  0  0  0  0  0  0  0  0
   30.6282  -25.4723  -36.1003 C   0  0  0  0  0  0  0  0  0  0  0  0
   30.4822  -27.6334  -37.0630 O   0  0  0  0  0  0  0  0  0  0  0  0
   31.6418  -28.0440  -36.3759 C   0  0  0  0  0  0  0  0  0  0  0  0
   29.0414  -24.4457  -38.1353 C   0  0  0  0  0  0  0  0  0  0  0  0
   29.5066  -23.6050  -37.1448 C   0  0  0  0  0  0  0  0  0  0  0  0
   30.3102  -24.1226  -36.1136 C   0  0  0  0  0  0  0  0  0  0  0  0
   30.7390  -23.2942  -35.1667 N   0  0  0  0  0  0  0  0  0  0  0  0
   30.4287  -21.9828  -35.1642 C   0  0  0  0  0  0  0  0  0  0  0  0
   29.6584  -21.5155  -36.1623 N   0  0  0  0  0  0  0  0  0  0  0  0
   29.1785  -22.2716  -37.1612 C   0  0  0  0  0  0  0  0  0  0  0  0
   28.3744  -21.7493  -38.1920 N   0  0  0  0  0  0  0  0  0  0  0  0
   28.0210  -20.3838  -38.3114 C   0  0  0  0  0  0  0  0  0  0  0  0
   28.9640  -19.3848  -38.1819 C   0  0  0  0  0  0  0  0  0  0  0  0
   28.6764  -18.0399  -38.2949 C   0  0  0  0  0  0  0  0  0  0  0  0
   29.8892  -16.7892  -38.1315 Cl  0  0  0  0  0  0  0  0  0  0  0  0
   27.3704  -17.6272  -38.5533 C   0  0  0  0  0  0  0  0  0  0  0  0
   27.0712  -16.3096  -38.6684 F   0  0  0  0  0  0  0  0  0  0  0  0
   26.4216  -18.6149  -38.6839 C   0  0  0  0  0  0  0  0  0  0  0  0
   26.7204  -19.9632  -38.5694 C   0  0  0  0  0  0  0  0  0  0  0  0
 20 19  2  0
 20 21  1  0
 18 13  1  0
 18 17  2  0
 18 19  1  0
 17 16  1  0
 17 22  1  0
 22 21  2  0
 22 23  1  0
 15 14  1  0
 30 28  1  0
 30 31  2  0
 31 24  1  0
 25 24  2  0
 25 26  1  0
 13 12  2  0
 16 11  2  0
  8  7  1  0
  8  9  1  0
  9 10  1  0
  2  1  1  0
  2  3  1  0
  4  3  1  0
  4  5  1  0
  7  6  1  0
  1  6  1  0
  5  6  1  0
 28 26  2  0
 28 29  1  0
 26 27  1  0
 24 23  1  0
 12 11  1  0
 12 14  1  0
 11 10  1  0
M  CHG  1   6   1
M  END
$$$$
