
     RDKit          3D

 31 34  0  0  0  0  0  0  0  0999 V2000
   26.9195  -29.6275  -43.1766 C   0  0  0  0  0  0  0  0  0  0  0  0
   27.2474  -30.6265  -44.2625 C   0  0  0  0  0  0  0  0  0  0  0  0
   27.9459  -31.7349  -43.7477 O   0  0  0  0  0  0  0  0  0  0  0  0
   27.2091  -32.3094  -42.6903 C   0  0  0  0  0  0  0  0  0  0  0  0
   26.9844  -31.3223  -41.5658 C   0  0  0  0  0  0  0  0  0  0  0  0
   27.5659  -30.0669  -41.9603 N   0  0  0  0  0  4  0  0  0  0  0  0
   27.5024  -29.0683  -40.9163 C   0  0  0  0  0  0  0  0  0  0  0  0
   28.1663  -27.7728  -41.3351 C   0  0  0  0  0  0  0  0  0  0  0  0
   28.1075  -26.8287  -40.1607 C   0  0  0  0  0  0  0  0  0  0  0  0
   29.2374  -26.8850  -39.3523 O   0  0  0  0  0  0  0  0  0  0  0  0
   29.6019  -26.0160  -38.3547 C   0  0  0  0  0  0  0  0  0  0  0  0
   30.4047  -26.5221  -37.3367 C   0  0  0  0  0  0  0  0  0  0  0  0
   30.8217  -25.7239  -36.2896 C   0  0  0  0  0  0  0  0  0  0  0  0
   30.8079  -27.8457  -37.3461 O   0  0  0  0  0  0  0  0  0  0  0  0
   31.8875  -28.2524  -36.5371 C   0  0  0  0  0  0  0  0  0  0  0  0
   29.2204  -24.6937  -38.3114 C   0  0  0  0  0  0  0  0  0  0  0  0
   29.6222  -23.8739  -37.2767 C   0  0  0  0  0  0  0  0  0  0  0  0
   30.4330  -24.3933  -36.2521 C   0  0  0  0  0  0  0  0  0  0  0  0
   30.7999  -23.5857  -35.2622 N   0  0  0  0  0  0  0  0  0  0  0  0
   30.4207  -22.2936  -35.2104 C   0  0  0  0  0  0  0  0  0  0  0  0
   29.6453  -21.8240  -36.2034 N   0  0  0  0  0  0  0  0  0  0  0  0
   29.2244  -22.5599  -37.2432 C   0  0  0  0  0  0  0  0  0  0  0  0
   28.4128  -22.0358  -38.2672 N   0  0  0  0  0  0  0  0  0  0  0  0
   28.0600  -20.6698  -38.3826 C   0  0  0  0  0  0  0  0  0  0  0  0
   29.0120  -19.6741  -38.3059 C   0  0  0  0  0  0  0  0  0  0  0  0
   28.7250  -18.3289  -38.4177 C   0  0  0  0  0  0  0  0  0  0  0  0
   29.9492  -17.0823  -38.3219 Cl  0  0  0  0  0  0  0  0  0  0  0  0
   27.4102  -17.9126  -38.6193 C   0  0  0  0  0  0  0  0  0  0  0  0
   27.1114  -16.5947  -38.7325 F   0  0  0  0  0  0  0  0  0  0  0  0
   26.4523  -18.8971  -38.6970 C   0  0  0  0  0  0  0  0  0  0  0  0
   26.7506  -20.2456  -38.5841 C   0  0  0  0  0  0  0  0  0  0  0  0
 20 19  2  0
 20 21  1  0
 18 13  1  0
 18 17  2  0
 18 19  1  0
 17 16  1  0
 17 22  1  0
 22 21  2  0
 22 23  1  0
 15 14  1  0
 30 28  1  0
 30 31  2  0
 31 24  1  0
 25 24  2  0
 25 26  1  0
 13 12  2  0
 16 11  2  0
  8  7  1  0
  8  9  1  0
  9 10  1  0
  2  1  1  0
  2  3  1  0
  4  3  1  0
  4  5  1  0
  7  6  1  0
  1  6  1  0
  5  6  1  0
 28 26  2  0
 28 29  1  0
 26 27  1  0
 24 23  1  0
 12 11  1  0
 12 14  1  0
 11 10  1  0
M  CHG  1   6   1
M  END
$$$$
