
     RDKit          3D

 31 34  0  0  0  0  0  0  0  0999 V2000
   26.0264  -29.9023  -42.6430 C   0  0  0  0  0  0  0  0  0  0  0  0
   24.7711  -29.8842  -43.4848 C   0  0  0  0  0  0  0  0  0  0  0  0
   23.9824  -28.7517  -43.2077 O   0  0  0  0  0  0  0  0  0  0  0  0
   24.7577  -27.5838  -43.3692 C   0  0  0  0  0  0  0  0  0  0  0  0
   25.9515  -27.5733  -42.4397 C   0  0  0  0  0  0  0  0  0  0  0  0
   25.9445  -28.8082  -41.7015 N   0  0  0  0  0  4  0  0  0  0  0  0
   26.9876  -28.8683  -40.7018 C   0  0  0  0  0  0  0  0  0  0  0  0
   27.9856  -27.7399  -40.8606 C   0  0  0  0  0  0  0  0  0  0  0  0
   27.8502  -26.8376  -39.6600 C   0  0  0  0  0  0  0  0  0  0  0  0
   28.9034  -26.9573  -38.7601 O   0  0  0  0  0  0  0  0  0  0  0  0
   29.3072  -26.0503  -37.8127 C   0  0  0  0  0  0  0  0  0  0  0  0
   30.1316  -26.5225  -36.7956 C   0  0  0  0  0  0  0  0  0  0  0  0
   30.5883  -25.6849  -35.7969 C   0  0  0  0  0  0  0  0  0  0  0  0
   30.5170  -27.8509  -36.7571 O   0  0  0  0  0  0  0  0  0  0  0  0
   31.3754  -28.2994  -35.7337 C   0  0  0  0  0  0  0  0  0  0  0  0
   28.9444  -24.7221  -37.8178 C   0  0  0  0  0  0  0  0  0  0  0  0
   29.3859  -23.8633  -36.8321 C   0  0  0  0  0  0  0  0  0  0  0  0
   30.2183  -24.3485  -35.8081 C   0  0  0  0  0  0  0  0  0  0  0  0
   30.6235  -23.5033  -34.8656 N   0  0  0  0  0  0  0  0  0  0  0  0
   30.2628  -22.2049  -34.8610 C   0  0  0  0  0  0  0  0  0  0  0  0
   29.4660  -21.7685  -35.8522 N   0  0  0  0  0  0  0  0  0  0  0  0
   29.0065  -22.5435  -36.8463 C   0  0  0  0  0  0  0  0  0  0  0  0
   28.1733  -22.0536  -37.8698 N   0  0  0  0  0  0  0  0  0  0  0  0
   27.8876  -20.6825  -38.0757 C   0  0  0  0  0  0  0  0  0  0  0  0
   28.8694  -19.7200  -37.9600 C   0  0  0  0  0  0  0  0  0  0  0  0
   28.6481  -18.3720  -38.1557 C   0  0  0  0  0  0  0  0  0  0  0  0
   29.9095  -17.1681  -38.0084 Cl  0  0  0  0  0  0  0  0  0  0  0  0
   27.3734  -17.9175  -38.4894 C   0  0  0  0  0  0  0  0  0  0  0  0
   27.1393  -16.5965  -38.6862 F   0  0  0  0  0  0  0  0  0  0  0  0
   26.3863  -18.8688  -38.6069 C   0  0  0  0  0  0  0  0  0  0  0  0
   26.6186  -20.2205  -38.4092 C   0  0  0  0  0  0  0  0  0  0  0  0
 20 19  2  0
 20 21  1  0
 18 13  1  0
 18 17  2  0
 18 19  1  0
 17 16  1  0
 17 22  1  0
 22 21  2  0
 22 23  1  0
 15 14  1  0
 30 28  1  0
 30 31  2  0
 31 24  1  0
 25 24  2  0
 25 26  1  0
 13 12  2  0
 16 11  2  0
  8  7  1  0
  8  9  1  0
  9 10  1  0
  2  1  1  0
  2  3  1  0
  4  3  1  0
  4  5  1  0
  7  6  1  0
  1  6  1  0
  5  6  1  0
 28 26  2  0
 28 29  1  0
 26 27  1  0
 24 23  1  0
 12 11  1  0
 12 14  1  0
 11 10  1  0
M  CHG  1   6   1
M  END
$$$$
