
     RDKit          3D

 31 34  0  0  0  0  0  0  0  0999 V2000
   25.8131  -30.7434  -42.2288 C   0  0  0  0  0  0  0  0  0  0  0  0
   25.7499  -31.3312  -43.6199 C   0  0  0  0  0  0  0  0  0  0  0  0
   26.7913  -30.8437  -44.4319 O   0  0  0  0  0  0  0  0  0  0  0  0
   28.0321  -31.0788  -43.8025 C   0  0  0  0  0  0  0  0  0  0  0  0
   28.1143  -30.3919  -42.4569 C   0  0  0  0  0  0  0  0  0  0  0  0
   26.8541  -29.7401  -42.2184 N   0  0  0  0  0  4  0  0  0  0  0  0
   26.8492  -28.9601  -41.0008 C   0  0  0  0  0  0  0  0  0  0  0  0
   27.9593  -27.9296  -40.9876 C   0  0  0  0  0  0  0  0  0  0  0  0
   27.8441  -27.1502  -39.7018 C   0  0  0  0  0  0  0  0  0  0  0  0
   29.0257  -27.1186  -38.9697 O   0  0  0  0  0  0  0  0  0  0  0  0
   29.4278  -26.1708  -38.0623 C   0  0  0  0  0  0  0  0  0  0  0  0
   30.2724  -26.5921  -37.0396 C   0  0  0  0  0  0  0  0  0  0  0  0
   30.7292  -25.7109  -36.0792 C   0  0  0  0  0  0  0  0  0  0  0  0
   30.6786  -27.9122  -36.9566 O   0  0  0  0  0  0  0  0  0  0  0  0
   31.8492  -28.2390  -36.2437 C   0  0  0  0  0  0  0  0  0  0  0  0
   29.0447  -24.8492  -38.1123 C   0  0  0  0  0  0  0  0  0  0  0  0
   29.4857  -23.9474  -37.1655 C   0  0  0  0  0  0  0  0  0  0  0  0
   30.3386  -24.3814  -36.1354 C   0  0  0  0  0  0  0  0  0  0  0  0
   30.7430  -23.4955  -35.2308 N   0  0  0  0  0  0  0  0  0  0  0  0
   30.3626  -22.2032  -35.2699 C   0  0  0  0  0  0  0  0  0  0  0  0
   29.5464  -21.8163  -36.2659 N   0  0  0  0  0  0  0  0  0  0  0  0
   29.0860  -22.6349  -37.2239 C   0  0  0  0  0  0  0  0  0  0  0  0
   28.2322  -22.1963  -38.2538 N   0  0  0  0  0  0  0  0  0  0  0  0
   27.9745  -20.8359  -38.5487 C   0  0  0  0  0  0  0  0  0  0  0  0
   28.9580  -19.8762  -38.4245 C   0  0  0  0  0  0  0  0  0  0  0  0
   28.7637  -18.5389  -38.7040 C   0  0  0  0  0  0  0  0  0  0  0  0
   30.0270  -17.3387  -38.5440 Cl  0  0  0  0  0  0  0  0  0  0  0  0
   27.5165  -18.0931  -39.1382 C   0  0  0  0  0  0  0  0  0  0  0  0
   27.3093  -16.7826  -39.4182 F   0  0  0  0  0  0  0  0  0  0  0  0
   26.5280  -19.0415  -39.2651 C   0  0  0  0  0  0  0  0  0  0  0  0
   26.7331  -20.3825  -38.9826 C   0  0  0  0  0  0  0  0  0  0  0  0
 20 19  2  0
 20 21  1  0
 18 13  1  0
 18 17  2  0
 18 19  1  0
 17 16  1  0
 17 22  1  0
 22 21  2  0
 22 23  1  0
 15 14  1  0
 30 28  1  0
 30 31  2  0
 31 24  1  0
 25 24  2  0
 25 26  1  0
 13 12  2  0
 16 11  2  0
  8  7  1  0
  8  9  1  0
  9 10  1  0
  2  1  1  0
  2  3  1  0
  4  3  1  0
  4  5  1  0
  7  6  1  0
  1  6  1  0
  5  6  1  0
 28 26  2  0
 28 29  1  0
 26 27  1  0
 24 23  1  0
 12 11  1  0
 12 14  1  0
 11 10  1  0
M  CHG  1   6   1
M  END
$$$$
