
     RDKit          3D

 31 34  0  0  0  0  0  0  0  0999 V2000
   27.8918  -29.4693  -43.1046 C   0  0  0  0  0  0  0  0  0  0  0  0
   27.1418  -30.1984  -44.1957 C   0  0  0  0  0  0  0  0  0  0  0  0
   25.7686  -30.2929  -43.9009 O   0  0  0  0  0  0  0  0  0  0  0  0
   25.2473  -29.0049  -43.6555 C   0  0  0  0  0  0  0  0  0  0  0  0
   25.9409  -28.3348  -42.4897 C   0  0  0  0  0  0  0  0  0  0  0  0
   26.9686  -29.2250  -42.0191 N   0  0  0  0  0  4  0  0  0  0  0  0
   27.6359  -28.7327  -40.8345 C   0  0  0  0  0  0  0  0  0  0  0  0
   27.5973  -27.2205  -40.7537 C   0  0  0  0  0  0  0  0  0  0  0  0
   28.9439  -26.7548  -40.2600 C   0  0  0  0  0  0  0  0  0  0  0  0
   29.0896  -26.8562  -38.8810 O   0  0  0  0  0  0  0  0  0  0  0  0
   29.5154  -25.8878  -38.0068 C   0  0  0  0  0  0  0  0  0  0  0  0
   30.3552  -26.2931  -36.9736 C   0  0  0  0  0  0  0  0  0  0  0  0
   30.8345  -25.3906  -36.0445 C   0  0  0  0  0  0  0  0  0  0  0  0
   30.7336  -27.6180  -36.8485 O   0  0  0  0  0  0  0  0  0  0  0  0
   31.6060  -27.9999  -35.8099 C   0  0  0  0  0  0  0  0  0  0  0  0
   29.1602  -24.5607  -38.0991 C   0  0  0  0  0  0  0  0  0  0  0  0
   29.6241  -23.6378  -37.1842 C   0  0  0  0  0  0  0  0  0  0  0  0
   30.4719  -24.0557  -36.1432 C   0  0  0  0  0  0  0  0  0  0  0  0
   30.8988  -23.1492  -35.2698 N   0  0  0  0  0  0  0  0  0  0  0  0
   30.5456  -21.8511  -35.3502 C   0  0  0  0  0  0  0  0  0  0  0  0
   29.7337  -21.4800  -36.3556 N   0  0  0  0  0  0  0  0  0  0  0  0
   29.2520  -22.3197  -37.2845 C   0  0  0  0  0  0  0  0  0  0  0  0
   28.4035  -21.8971  -38.3253 N   0  0  0  0  0  0  0  0  0  0  0  0
   27.9942  -20.5566  -38.5239 C   0  0  0  0  0  0  0  0  0  0  0  0
   28.8949  -19.5138  -38.4538 C   0  0  0  0  0  0  0  0  0  0  0  0
   28.5522  -18.1908  -38.6448 C   0  0  0  0  0  0  0  0  0  0  0  0
   29.7122  -16.8836  -38.5559 Cl  0  0  0  0  0  0  0  0  0  0  0  0
   27.2307  -17.8481  -38.9257 C   0  0  0  0  0  0  0  0  0  0  0  0
   26.8775  -16.5530  -39.1173 F   0  0  0  0  0  0  0  0  0  0  0  0
   26.3237  -18.8801  -38.9975 C   0  0  0  0  0  0  0  0  0  0  0  0
   26.6778  -20.2059  -38.8048 C   0  0  0  0  0  0  0  0  0  0  0  0
 20 19  2  0
 20 21  1  0
 18 13  1  0
 18 17  2  0
 18 19  1  0
 17 16  1  0
 17 22  1  0
 22 21  2  0
 22 23  1  0
 15 14  1  0
 30 28  1  0
 30 31  2  0
 31 24  1  0
 25 24  2  0
 25 26  1  0
 13 12  2  0
 16 11  2  0
  8  7  1  0
  8  9  1  0
  9 10  1  0
  2  1  1  0
  2  3  1  0
  4  3  1  0
  4  5  1  0
  7  6  1  0
  1  6  1  0
  5  6  1  0
 28 26  2  0
 28 29  1  0
 26 27  1  0
 24 23  1  0
 12 11  1  0
 12 14  1  0
 11 10  1  0
M  CHG  1   6   1
M  END
$$$$
