
     RDKit          3D

 31 34  0  0  0  0  0  0  0  0999 V2000
   26.2590  -30.9869  -41.2020 C   0  0  0  0  0  0  0  0  0  0  0  0
   25.2914  -31.5211  -42.2330 C   0  0  0  0  0  0  0  0  0  0  0  0
   25.2747  -30.7166  -43.3880 O   0  0  0  0  0  0  0  0  0  0  0  0
   26.5856  -30.5873  -43.8939 C   0  0  0  0  0  0  0  0  0  0  0  0
   27.5141  -29.9515  -42.8825 C   0  0  0  0  0  0  0  0  0  0  0  0
   26.7599  -29.7176  -41.6798 N   0  0  0  0  0  4  0  0  0  0  0  0
   27.5204  -29.0152  -40.6702 C   0  0  0  0  0  0  0  0  0  0  0  0
   28.3930  -27.9338  -41.2732 C   0  0  0  0  0  0  0  0  0  0  0  0
   28.3295  -26.7342  -40.3617 C   0  0  0  0  0  0  0  0  0  0  0  0
   28.8782  -26.9678  -39.1057 O   0  0  0  0  0  0  0  0  0  0  0  0
   29.3394  -26.0418  -38.2040 C   0  0  0  0  0  0  0  0  0  0  0  0
   30.1522  -26.5101  -37.1759 C   0  0  0  0  0  0  0  0  0  0  0  0
   30.6635  -25.6538  -36.2205 C   0  0  0  0  0  0  0  0  0  0  0  0
   30.4709  -27.8533  -37.0824 O   0  0  0  0  0  0  0  0  0  0  0  0
   31.3218  -28.2989  -36.0515 C   0  0  0  0  0  0  0  0  0  0  0  0
   29.0438  -24.6984  -38.2644 C   0  0  0  0  0  0  0  0  0  0  0  0
   29.5407  -23.8206  -37.3228 C   0  0  0  0  0  0  0  0  0  0  0  0
   30.3610  -24.3020  -36.2872 C   0  0  0  0  0  0  0  0  0  0  0  0
   30.8204  -23.4379  -35.3877 N   0  0  0  0  0  0  0  0  0  0  0  0
   30.5256  -22.1239  -35.4371 C   0  0  0  0  0  0  0  0  0  0  0  0
   29.7388  -21.6916  -36.4380 N   0  0  0  0  0  0  0  0  0  0  0  0
   29.2280  -22.4852  -37.3915 C   0  0  0  0  0  0  0  0  0  0  0  0
   28.4072  -21.9990  -38.4268 N   0  0  0  0  0  0  0  0  0  0  0  0
   28.1205  -20.6290  -38.6385 C   0  0  0  0  0  0  0  0  0  0  0  0
   29.1210  -19.6790  -38.6420 C   0  0  0  0  0  0  0  0  0  0  0  0
   28.8991  -18.3328  -38.8491 C   0  0  0  0  0  0  0  0  0  0  0  0
   30.1841  -17.1450  -38.8542 Cl  0  0  0  0  0  0  0  0  0  0  0  0
   27.6040  -17.8672  -39.0698 C   0  0  0  0  0  0  0  0  0  0  0  0
   27.3690  -16.5477  -39.2761 F   0  0  0  0  0  0  0  0  0  0  0  0
   26.5982  -18.8059  -39.0679 C   0  0  0  0  0  0  0  0  0  0  0  0
   26.8312  -20.1559  -38.8597 C   0  0  0  0  0  0  0  0  0  0  0  0
 20 19  2  0
 20 21  1  0
 18 13  1  0
 18 17  2  0
 18 19  1  0
 17 16  1  0
 17 22  1  0
 22 21  2  0
 22 23  1  0
 15 14  1  0
 30 28  1  0
 30 31  2  0
 31 24  1  0
 25 24  2  0
 25 26  1  0
 13 12  2  0
 16 11  2  0
  8  7  1  0
  8  9  1  0
  9 10  1  0
  2  1  1  0
  2  3  1  0
  4  3  1  0
  4  5  1  0
  7  6  1  0
  1  6  1  0
  5  6  1  0
 28 26  2  0
 28 29  1  0
 26 27  1  0
 24 23  1  0
 12 11  1  0
 12 14  1  0
 11 10  1  0
M  CHG  1   6   1
M  END
$$$$
