
     RDKit          3D

 31 34  0  0  0  0  0  0  0  0999 V2000
   25.9889  -27.3071  -43.2814 C   0  0  0  0  0  0  0  0  0  0  0  0
   25.9061  -27.8896  -44.6737 C   0  0  0  0  0  0  0  0  0  0  0  0
   25.6060  -29.2645  -44.6388 O   0  0  0  0  0  0  0  0  0  0  0  0
   24.4250  -29.4727  -43.8954 C   0  0  0  0  0  0  0  0  0  0  0  0
   24.5668  -28.9787  -42.4723 C   0  0  0  0  0  0  0  0  0  0  0  0
   25.8755  -28.3965  -42.3376 N   0  0  0  0  0  4  0  0  0  0  0  0
   26.1656  -27.9791  -40.9838 C   0  0  0  0  0  0  0  0  0  0  0  0
   27.5713  -27.4304  -40.8526 C   0  0  0  0  0  0  0  0  0  0  0  0
   27.9476  -27.4818  -39.3932 C   0  0  0  0  0  0  0  0  0  0  0  0
   29.2320  -27.0136  -39.1393 O   0  0  0  0  0  0  0  0  0  0  0  0
   29.6248  -26.1140  -38.1803 C   0  0  0  0  0  0  0  0  0  0  0  0
   30.4890  -26.5785  -37.1932 C   0  0  0  0  0  0  0  0  0  0  0  0
   30.9385  -25.7473  -36.1858 C   0  0  0  0  0  0  0  0  0  0  0  0
   30.9225  -27.8925  -37.1940 O   0  0  0  0  0  0  0  0  0  0  0  0
   31.8562  -28.3202  -36.2293 C   0  0  0  0  0  0  0  0  0  0  0  0
   29.2148  -24.8001  -38.1467 C   0  0  0  0  0  0  0  0  0  0  0  0
   29.6479  -23.9479  -37.1515 C   0  0  0  0  0  0  0  0  0  0  0  0
   30.5207  -24.4253  -36.1578 C   0  0  0  0  0  0  0  0  0  0  0  0
   30.9171  -23.5872  -35.2054 N   0  0  0  0  0  0  0  0  0  0  0  0
   30.5104  -22.3031  -35.1627 C   0  0  0  0  0  0  0  0  0  0  0  0
   29.6757  -21.8740  -36.1255 N   0  0  0  0  0  0  0  0  0  0  0  0
   29.2213  -22.6428  -37.1267 C   0  0  0  0  0  0  0  0  0  0  0  0
   28.3476  -22.1608  -38.1197 N   0  0  0  0  0  0  0  0  0  0  0  0
   28.0339  -20.7933  -38.3083 C   0  0  0  0  0  0  0  0  0  0  0  0
   29.0086  -19.8187  -38.2463 C   0  0  0  0  0  0  0  0  0  0  0  0
   28.7601  -18.4735  -38.4282 C   0  0  0  0  0  0  0  0  0  0  0  0
   30.0127  -17.2540  -38.3499 Cl  0  0  0  0  0  0  0  0  0  0  0  0
   27.4634  -18.0349  -38.6906 C   0  0  0  0  0  0  0  0  0  0  0  0
   27.2024  -16.7168  -38.8730 F   0  0  0  0  0  0  0  0  0  0  0  0
   26.4832  -18.9983  -38.7541 C   0  0  0  0  0  0  0  0  0  0  0  0
   26.7428  -20.3470  -38.5707 C   0  0  0  0  0  0  0  0  0  0  0  0
 20 19  2  0
 20 21  1  0
 18 13  1  0
 18 17  2  0
 18 19  1  0
 17 16  1  0
 17 22  1  0
 22 21  2  0
 22 23  1  0
 15 14  1  0
 30 28  1  0
 30 31  2  0
 31 24  1  0
 25 24  2  0
 25 26  1  0
 13 12  2  0
 16 11  2  0
  8  7  1  0
  8  9  1  0
  9 10  1  0
  2  1  1  0
  2  3  1  0
  4  3  1  0
  4  5  1  0
  7  6  1  0
  1  6  1  0
  5  6  1  0
 28 26  2  0
 28 29  1  0
 26 27  1  0
 24 23  1  0
 12 11  1  0
 12 14  1  0
 11 10  1  0
M  CHG  1   6   1
M  END
$$$$
