
     RDKit          3D

 31 34  0  0  0  0  0  0  0  0999 V2000
   25.1712  -27.1108  -42.2744 C   0  0  0  0  0  0  0  0  0  0  0  0
   24.6060  -26.5107  -43.5414 C   0  0  0  0  0  0  0  0  0  0  0  0
   25.4259  -26.7873  -44.6516 O   0  0  0  0  0  0  0  0  0  0  0  0
   25.6265  -28.1801  -44.7568 C   0  0  0  0  0  0  0  0  0  0  0  0
   26.2917  -28.7431  -43.5199 C   0  0  0  0  0  0  0  0  0  0  0  0
   26.4705  -27.6628  -42.5867 N   0  0  0  0  0  4  0  0  0  0  0  0
   27.1940  -28.0625  -41.4002 C   0  0  0  0  0  0  0  0  0  0  0  0
   27.3658  -26.9112  -40.4308 C   0  0  0  0  0  0  0  0  0  0  0  0
   28.2916  -27.3721  -39.3334 C   0  0  0  0  0  0  0  0  0  0  0  0
   29.4392  -26.5954  -39.2191 O   0  0  0  0  0  0  0  0  0  0  0  0
   29.7318  -25.6643  -38.2544 C   0  0  0  0  0  0  0  0  0  0  0  0
   30.5332  -26.0808  -37.1955 C   0  0  0  0  0  0  0  0  0  0  0  0
   30.8808  -25.2154  -36.1768 C   0  0  0  0  0  0  0  0  0  0  0  0
   31.0049  -27.3801  -37.1342 O   0  0  0  0  0  0  0  0  0  0  0  0
   32.0379  -27.7060  -36.2331 C   0  0  0  0  0  0  0  0  0  0  0  0
   29.2810  -24.3636  -38.2812 C   0  0  0  0  0  0  0  0  0  0  0  0
   29.6125  -23.4779  -37.2763 C   0  0  0  0  0  0  0  0  0  0  0  0
   30.4224  -23.9070  -36.2100 C   0  0  0  0  0  0  0  0  0  0  0  0
   30.7209  -23.0374  -35.2500 N   0  0  0  0  0  0  0  0  0  0  0  0
   30.2736  -21.7662  -35.2669 C   0  0  0  0  0  0  0  0  0  0  0  0
   29.5008  -21.3836  -36.2985 N   0  0  0  0  0  0  0  0  0  0  0  0
   29.1460  -22.1868  -37.3129 C   0  0  0  0  0  0  0  0  0  0  0  0
   28.3351  -21.7532  -38.3788 N   0  0  0  0  0  0  0  0  0  0  0  0
   27.9599  -20.4057  -38.5964 C   0  0  0  0  0  0  0  0  0  0  0  0
   28.8926  -19.3891  -38.5752 C   0  0  0  0  0  0  0  0  0  0  0  0
   28.5836  -18.0609  -38.7867 C   0  0  0  0  0  0  0  0  0  0  0  0
   29.7836  -16.7875  -38.7600 Cl  0  0  0  0  0  0  0  0  0  0  0  0
   27.2652  -17.6849  -39.0382 C   0  0  0  0  0  0  0  0  0  0  0  0
   26.9450  -16.3842  -39.2492 F   0  0  0  0  0  0  0  0  0  0  0  0
   26.3266  -18.6905  -39.0611 C   0  0  0  0  0  0  0  0  0  0  0  0
   26.6469  -20.0218  -38.8482 C   0  0  0  0  0  0  0  0  0  0  0  0
 20 19  2  0
 20 21  1  0
 18 13  1  0
 18 17  2  0
 18 19  1  0
 17 16  1  0
 17 22  1  0
 22 21  2  0
 22 23  1  0
 15 14  1  0
 30 28  1  0
 30 31  2  0
 31 24  1  0
 25 24  2  0
 25 26  1  0
 13 12  2  0
 16 11  2  0
  8  7  1  0
  8  9  1  0
  9 10  1  0
  2  1  1  0
  2  3  1  0
  4  3  1  0
  4  5  1  0
  7  6  1  0
  1  6  1  0
  5  6  1  0
 28 26  2  0
 28 29  1  0
 26 27  1  0
 24 23  1  0
 12 11  1  0
 12 14  1  0
 11 10  1  0
M  CHG  1   6   1
M  END
$$$$
