
     RDKit          3D

 31 34  0  0  0  0  0  0  0  0999 V2000
   24.0318  -24.1338  -43.4004 C   0  0  0  0  0  0  0  0  0  0  0  0
   23.0677  -24.0739  -44.5630 C   0  0  0  0  0  0  0  0  0  0  0  0
   23.4805  -23.1334  -45.5255 O   0  0  0  0  0  0  0  0  0  0  0  0
   24.8004  -23.4212  -45.9331 C   0  0  0  0  0  0  0  0  0  0  0  0
   25.7672  -23.3704  -44.7704 C   0  0  0  0  0  0  0  0  0  0  0  0
   25.0098  -23.0844  -43.5811 N   0  0  0  0  0  4  0  0  0  0  0  0
   25.8455  -22.9094  -42.4141 C   0  0  0  0  0  0  0  0  0  0  0  0
   25.0234  -22.7156  -41.1566 C   0  0  0  0  0  0  0  0  0  0  0  0
   25.8541  -23.1882  -39.9902 C   0  0  0  0  0  0  0  0  0  0  0  0
   26.8275  -22.2746  -39.6018 O   0  0  0  0  0  0  0  0  0  0  0  0
   27.7256  -22.3900  -38.5706 C   0  0  0  0  0  0  0  0  0  0  0  0
   27.9604  -21.2513  -37.8055 C   0  0  0  0  0  0  0  0  0  0  0  0
   28.8477  -21.2699  -36.7473 C   0  0  0  0  0  0  0  0  0  0  0  0
   27.3082  -20.0638  -38.0866 O   0  0  0  0  0  0  0  0  0  0  0  0
   27.1829  -19.0818  -37.0839 C   0  0  0  0  0  0  0  0  0  0  0  0
   28.3933  -23.5537  -38.2610 C   0  0  0  0  0  0  0  0  0  0  0  0
   29.2856  -23.6003  -37.2095 C   0  0  0  0  0  0  0  0  0  0  0  0
   29.5172  -22.4453  -36.4417 C   0  0  0  0  0  0  0  0  0  0  0  0
   30.3875  -22.5135  -35.4394 N   0  0  0  0  0  0  0  0  0  0  0  0
   31.0507  -23.6475  -35.1390 C   0  0  0  0  0  0  0  0  0  0  0  0
   30.8098  -24.7364  -35.8901 N   0  0  0  0  0  0  0  0  0  0  0  0
   29.9510  -24.7663  -36.9203 C   0  0  0  0  0  0  0  0  0  0  0  0
   29.7219  -25.9250  -37.6864 N   0  0  0  0  0  0  0  0  0  0  0  0
   30.2948  -27.1892  -37.4081 C   0  0  0  0  0  0  0  0  0  0  0  0
   29.8334  -28.3363  -38.0206 C   0  0  0  0  0  0  0  0  0  0  0  0
   30.3582  -29.5918  -37.7914 C   0  0  0  0  0  0  0  0  0  0  0  0
   29.7606  -31.0334  -38.5829 Cl  0  0  0  0  0  0  0  0  0  0  0  0
   31.4147  -29.7513  -36.8963 C   0  0  0  0  0  0  0  0  0  0  0  0
   31.9427  -30.9779  -36.6606 F   0  0  0  0  0  0  0  0  0  0  0  0
   31.8825  -28.6141  -36.2793 C   0  0  0  0  0  0  0  0  0  0  0  0
   31.3493  -27.3573  -36.5166 C   0  0  0  0  0  0  0  0  0  0  0  0
 20 19  2  0
 20 21  1  0
 18 13  1  0
 18 17  2  0
 18 19  1  0
 17 16  1  0
 17 22  1  0
 22 21  2  0
 22 23  1  0
 15 14  1  0
 30 28  1  0
 30 31  2  0
 31 24  1  0
 25 24  2  0
 25 26  1  0
 13 12  2  0
 16 11  2  0
  8  7  1  0
  8  9  1  0
  9 10  1  0
  2  1  1  0
  2  3  1  0
  4  3  1  0
  4  5  1  0
  7  6  1  0
  1  6  1  0
  5  6  1  0
 28 26  2  0
 28 29  1  0
 26 27  1  0
 24 23  1  0
 12 11  1  0
 12 14  1  0
 11 10  1  0
M  CHG  1   6   1
M  END
$$$$
