
     RDKit          3D

 31 34  0  0  0  0  0  0  0  0999 V2000
   26.6650  -29.9612  -42.5103 C   0  0  0  0  0  0  0  0  0  0  0  0
   25.3301  -30.5422  -42.9167 C   0  0  0  0  0  0  0  0  0  0  0  0
   24.3736  -29.5320  -43.1314 O   0  0  0  0  0  0  0  0  0  0  0  0
   24.8677  -28.6045  -44.0730 C   0  0  0  0  0  0  0  0  0  0  0  0
   26.1491  -27.9555  -43.5976 C   0  0  0  0  0  0  0  0  0  0  0  0
   26.4916  -28.5376  -42.3273 N   0  0  0  0  0  4  0  0  0  0  0  0
   27.6506  -27.9192  -41.7227 C   0  0  0  0  0  0  0  0  0  0  0  0
   27.4362  -27.6412  -40.2492 C   0  0  0  0  0  0  0  0  0  0  0  0
   28.1417  -26.3496  -39.9204 C   0  0  0  0  0  0  0  0  0  0  0  0
   29.1782  -26.5059  -39.0068 O   0  0  0  0  0  0  0  0  0  0  0  0
   29.5959  -25.6166  -38.0487 C   0  0  0  0  0  0  0  0  0  0  0  0
   30.3995  -26.1169  -37.0284 C   0  0  0  0  0  0  0  0  0  0  0  0
   30.8680  -25.2987  -36.0192 C   0  0  0  0  0  0  0  0  0  0  0  0
   30.7517  -27.4546  -36.9973 O   0  0  0  0  0  0  0  0  0  0  0  0
   31.8182  -27.8769  -36.1789 C   0  0  0  0  0  0  0  0  0  0  0  0
   29.2660  -24.2798  -38.0463 C   0  0  0  0  0  0  0  0  0  0  0  0
   29.7198  -23.4398  -37.0500 C   0  0  0  0  0  0  0  0  0  0  0  0
   30.5310  -23.9535  -36.0228 C   0  0  0  0  0  0  0  0  0  0  0  0
   30.9487  -23.1259  -35.0702 N   0  0  0  0  0  0  0  0  0  0  0  0
   30.6201  -21.8190  -35.0582 C   0  0  0  0  0  0  0  0  0  0  0  0
   29.8429  -21.3554  -36.0527 N   0  0  0  0  0  0  0  0  0  0  0  0
   29.3731  -22.1110  -37.0568 C   0  0  0  0  0  0  0  0  0  0  0  0
   28.5613  -21.5927  -38.0835 N   0  0  0  0  0  0  0  0  0  0  0  0
   28.2226  -20.2247  -38.2164 C   0  0  0  0  0  0  0  0  0  0  0  0
   27.8414  -19.4709  -37.1254 C   0  0  0  0  0  0  0  0  0  0  0  0
   27.5071  -18.1339  -37.1966 C   0  0  0  0  0  0  0  0  0  0  0  0
   27.0307  -17.1951  -35.7988 Cl  0  0  0  0  0  0  0  0  0  0  0  0
   27.5434  -17.4721  -38.4228 C   0  0  0  0  0  0  0  0  0  0  0  0
   27.2190  -16.1584  -38.5098 F   0  0  0  0  0  0  0  0  0  0  0  0
   27.9217  -18.2143  -39.5177 C   0  0  0  0  0  0  0  0  0  0  0  0
   28.2563  -19.5565  -39.4360 C   0  0  0  0  0  0  0  0  0  0  0  0
 20 19  2  0
 20 21  1  0
 18 13  1  0
 18 17  2  0
 18 19  1  0
 17 16  1  0
 17 22  1  0
 22 21  2  0
 22 23  1  0
 15 14  1  0
 30 28  1  0
 30 31  2  0
 31 24  1  0
 25 24  2  0
 25 26  1  0
 13 12  2  0
 16 11  2  0
  8  7  1  0
  8  9  1  0
  9 10  1  0
  2  1  1  0
  2  3  1  0
  4  3  1  0
  4  5  1  0
  7  6  1  0
  1  6  1  0
  5  6  1  0
 28 26  2  0
 28 29  1  0
 26 27  1  0
 24 23  1  0
 12 11  1  0
 12 14  1  0
 11 10  1  0
M  CHG  1   6   1
M  END
$$$$
