
     RDKit          3D

 31 34  0  0  0  0  0  0  0  0999 V2000
   25.0894  -28.8866  -41.4100 C   0  0  0  0  0  0  0  0  0  0  0  0
   23.8353  -28.7605  -42.2442 C   0  0  0  0  0  0  0  0  0  0  0  0
   24.1111  -28.2004  -43.5058 O   0  0  0  0  0  0  0  0  0  0  0  0
   25.1142  -28.9553  -44.1499 C   0  0  0  0  0  0  0  0  0  0  0  0
   26.3967  -28.9792  -43.3474 C   0  0  0  0  0  0  0  0  0  0  0  0
   26.1673  -28.2468  -42.1305 N   0  0  0  0  0  4  0  0  0  0  0  0
   27.3602  -28.1137  -41.3242 C   0  0  0  0  0  0  0  0  0  0  0  0
   27.3833  -26.8034  -40.5646 C   0  0  0  0  0  0  0  0  0  0  0  0
   27.5674  -27.1256  -39.1030 C   0  0  0  0  0  0  0  0  0  0  0  0
   28.8645  -26.9097  -38.6510 O   0  0  0  0  0  0  0  0  0  0  0  0
   29.2970  -25.9620  -37.7577 C   0  0  0  0  0  0  0  0  0  0  0  0
   30.1745  -26.3837  -36.7632 C   0  0  0  0  0  0  0  0  0  0  0  0
   30.6633  -25.5025  -35.8187 C   0  0  0  0  0  0  0  0  0  0  0  0
   30.5820  -27.7041  -36.6932 O   0  0  0  0  0  0  0  0  0  0  0  0
   31.4932  -28.1015  -35.6945 C   0  0  0  0  0  0  0  0  0  0  0  0
   28.9136  -24.6401  -37.7955 C   0  0  0  0  0  0  0  0  0  0  0  0
   29.3862  -23.7384  -36.8641 C   0  0  0  0  0  0  0  0  0  0  0  0
   30.2722  -24.1728  -35.8624 C   0  0  0  0  0  0  0  0  0  0  0  0
   30.7069  -23.2868  -34.9719 N   0  0  0  0  0  0  0  0  0  0  0  0
   30.3265  -21.9943  -34.9989 C   0  0  0  0  0  0  0  0  0  0  0  0
   29.4783  -21.6070  -35.9676 N   0  0  0  0  0  0  0  0  0  0  0  0
   28.9858  -22.4255  -36.9097 C   0  0  0  0  0  0  0  0  0  0  0  0
   28.0990  -21.9865  -37.9110 N   0  0  0  0  0  0  0  0  0  0  0  0
   27.7837  -20.6282  -38.1552 C   0  0  0  0  0  0  0  0  0  0  0  0
   28.7663  -19.6607  -38.2011 C   0  0  0  0  0  0  0  0  0  0  0  0
   28.5163  -18.3250  -38.4411 C   0  0  0  0  0  0  0  0  0  0  0  0
   29.7789  -17.1148  -38.4997 Cl  0  0  0  0  0  0  0  0  0  0  0  0
   27.2095  -17.8891  -38.6531 C   0  0  0  0  0  0  0  0  0  0  0  0
   26.9468  -16.5803  -38.8914 F   0  0  0  0  0  0  0  0  0  0  0  0
   26.2213  -18.8454  -38.6090 C   0  0  0  0  0  0  0  0  0  0  0  0
   26.4825  -20.1847  -38.3679 C   0  0  0  0  0  0  0  0  0  0  0  0
 20 19  2  0
 20 21  1  0
 18 13  1  0
 18 17  2  0
 18 19  1  0
 17 16  1  0
 17 22  1  0
 22 21  2  0
 22 23  1  0
 15 14  1  0
 30 28  1  0
 30 31  2  0
 31 24  1  0
 25 24  2  0
 25 26  1  0
 13 12  2  0
 16 11  2  0
  8  7  1  0
  8  9  1  0
  9 10  1  0
  2  1  1  0
  2  3  1  0
  4  3  1  0
  4  5  1  0
  7  6  1  0
  1  6  1  0
  5  6  1  0
 28 26  2  0
 28 29  1  0
 26 27  1  0
 24 23  1  0
 12 11  1  0
 12 14  1  0
 11 10  1  0
M  CHG  1   6   1
M  END
$$$$
