
     RDKit          3D

 31 34  0  0  0  0  0  0  0  0999 V2000
   26.4601  -28.3305  -42.7868 C   0  0  0  0  0  0  0  0  0  0  0  0
   26.3882  -29.3663  -43.8852 C   0  0  0  0  0  0  0  0  0  0  0  0
   25.6649  -30.5020  -43.4745 O   0  0  0  0  0  0  0  0  0  0  0  0
   24.3886  -30.1106  -43.0172 C   0  0  0  0  0  0  0  0  0  0  0  0
   24.4835  -29.1560  -41.8472 C   0  0  0  0  0  0  0  0  0  0  0  0
   25.8779  -28.9066  -41.5954 N   0  0  0  0  0  4  0  0  0  0  0  0
   26.0969  -28.0832  -40.4270 C   0  0  0  0  0  0  0  0  0  0  0  0
   27.4611  -27.4252  -40.4495 C   0  0  0  0  0  0  0  0  0  0  0  0
   28.0596  -27.5669  -39.0727 C   0  0  0  0  0  0  0  0  0  0  0  0
   29.2361  -26.8446  -38.9071 O   0  0  0  0  0  0  0  0  0  0  0  0
   29.5408  -25.9501  -37.9119 C   0  0  0  0  0  0  0  0  0  0  0  0
   30.3190  -26.4180  -36.8572 C   0  0  0  0  0  0  0  0  0  0  0  0
   30.6763  -25.5921  -35.8094 C   0  0  0  0  0  0  0  0  0  0  0  0
   30.7572  -27.7301  -36.8295 O   0  0  0  0  0  0  0  0  0  0  0  0
   32.0219  -28.0325  -36.2867 C   0  0  0  0  0  0  0  0  0  0  0  0
   29.1231  -24.6382  -37.9049 C   0  0  0  0  0  0  0  0  0  0  0  0
   29.4650  -23.7913  -36.8705 C   0  0  0  0  0  0  0  0  0  0  0  0
   30.2513  -24.2720  -35.8086 C   0  0  0  0  0  0  0  0  0  0  0  0
   30.5604  -23.4390  -34.8200 N   0  0  0  0  0  0  0  0  0  0  0  0
   30.1454  -22.1570  -34.8039 C   0  0  0  0  0  0  0  0  0  0  0  0
   29.3946  -21.7245  -35.8321 N   0  0  0  0  0  0  0  0  0  0  0  0
   29.0316  -22.4881  -36.8737 C   0  0  0  0  0  0  0  0  0  0  0  0
   28.2444  -22.0028  -37.9351 N   0  0  0  0  0  0  0  0  0  0  0  0
   27.8558  -20.6497  -38.0838 C   0  0  0  0  0  0  0  0  0  0  0  0
   28.7749  -19.6250  -37.9893 C   0  0  0  0  0  0  0  0  0  0  0  0
   28.4527  -18.2907  -38.1318 C   0  0  0  0  0  0  0  0  0  0  0  0
   29.6356  -17.0068  -38.0127 Cl  0  0  0  0  0  0  0  0  0  0  0  0
   27.1340  -17.9168  -38.3854 C   0  0  0  0  0  0  0  0  0  0  0  0
   26.8009  -16.6103  -38.5291 F   0  0  0  0  0  0  0  0  0  0  0  0
   26.2089  -18.9306  -38.4811 C   0  0  0  0  0  0  0  0  0  0  0  0
   26.5424  -20.2678  -38.3372 C   0  0  0  0  0  0  0  0  0  0  0  0
 20 19  2  0
 20 21  1  0
 18 13  1  0
 18 17  2  0
 18 19  1  0
 17 16  1  0
 17 22  1  0
 22 21  2  0
 22 23  1  0
 15 14  1  0
 30 28  1  0
 30 31  2  0
 31 24  1  0
 25 24  2  0
 25 26  1  0
 13 12  2  0
 16 11  2  0
  8  7  1  0
  8  9  1  0
  9 10  1  0
  2  1  1  0
  2  3  1  0
  4  3  1  0
  4  5  1  0
  7  6  1  0
  1  6  1  0
  5  6  1  0
 28 26  2  0
 28 29  1  0
 26 27  1  0
 24 23  1  0
 12 11  1  0
 12 14  1  0
 11 10  1  0
M  CHG  1   6   1
M  END
$$$$
