
     RDKit          3D

 31 34  0  0  0  0  0  0  0  0999 V2000
   26.1360  -29.3764  -41.7077 C   0  0  0  0  0  0  0  0  0  0  0  0
   25.1839  -30.4743  -42.1234 C   0  0  0  0  0  0  0  0  0  0  0  0
   23.8520  -30.0193  -42.1444 O   0  0  0  0  0  0  0  0  0  0  0  0
   23.7543  -28.8788  -42.9696 C   0  0  0  0  0  0  0  0  0  0  0  0
   24.6355  -27.7535  -42.4732 C   0  0  0  0  0  0  0  0  0  0  0  0
   25.3469  -28.2298  -41.3169 N   0  0  0  0  0  4  0  0  0  0  0  0
   26.1488  -27.2022  -40.6909 C   0  0  0  0  0  0  0  0  0  0  0  0
   27.6280  -27.5206  -40.7621 C   0  0  0  0  0  0  0  0  0  0  0  0
   28.1930  -27.3813  -39.3709 C   0  0  0  0  0  0  0  0  0  0  0  0
   29.2525  -26.4842  -39.2945 O   0  0  0  0  0  0  0  0  0  0  0  0
   29.5354  -25.6010  -38.2830 C   0  0  0  0  0  0  0  0  0  0  0  0
   30.3064  -26.0755  -37.2260 C   0  0  0  0  0  0  0  0  0  0  0  0
   30.6421  -25.2611  -36.1622 C   0  0  0  0  0  0  0  0  0  0  0  0
   30.7590  -27.3830  -37.2120 O   0  0  0  0  0  0  0  0  0  0  0  0
   31.6480  -27.8033  -36.2028 C   0  0  0  0  0  0  0  0  0  0  0  0
   29.1029  -24.2940  -38.2620 C   0  0  0  0  0  0  0  0  0  0  0  0
   29.4231  -23.4585  -37.2115 C   0  0  0  0  0  0  0  0  0  0  0  0
   30.2023  -23.9460  -36.1474 C   0  0  0  0  0  0  0  0  0  0  0  0
   30.4903  -23.1240  -35.1433 N   0  0  0  0  0  0  0  0  0  0  0  0
   30.0608  -21.8471  -35.1136 C   0  0  0  0  0  0  0  0  0  0  0  0
   29.3173  -21.4080  -36.1442 N   0  0  0  0  0  0  0  0  0  0  0  0
   28.9751  -22.1604  -37.2010 C   0  0  0  0  0  0  0  0  0  0  0  0
   28.1949  -21.6683  -38.2645 N   0  0  0  0  0  0  0  0  0  0  0  0
   28.0225  -20.2938  -38.5556 C   0  0  0  0  0  0  0  0  0  0  0  0
   28.4822  -19.3157  -37.6978 C   0  0  0  0  0  0  0  0  0  0  0  0
   28.3467  -17.9630  -37.9345 C   0  0  0  0  0  0  0  0  0  0  0  0
   28.9416  -16.7389  -36.8347 Cl  0  0  0  0  0  0  0  0  0  0  0  0
   27.7143  -17.5198  -39.0949 C   0  0  0  0  0  0  0  0  0  0  0  0
   27.5740  -16.1942  -39.3432 F   0  0  0  0  0  0  0  0  0  0  0  0
   27.2513  -18.4866  -39.9574 C   0  0  0  0  0  0  0  0  0  0  0  0
   27.3929  -19.8429  -39.7111 C   0  0  0  0  0  0  0  0  0  0  0  0
 20 19  2  0
 20 21  1  0
 18 13  1  0
 18 17  2  0
 18 19  1  0
 17 16  1  0
 17 22  1  0
 22 21  2  0
 22 23  1  0
 15 14  1  0
 30 28  1  0
 30 31  2  0
 31 24  1  0
 25 24  2  0
 25 26  1  0
 13 12  2  0
 16 11  2  0
  8  7  1  0
  8  9  1  0
  9 10  1  0
  2  1  1  0
  2  3  1  0
  4  3  1  0
  4  5  1  0
  7  6  1  0
  1  6  1  0
  5  6  1  0
 28 26  2  0
 28 29  1  0
 26 27  1  0
 24 23  1  0
 12 11  1  0
 12 14  1  0
 11 10  1  0
M  CHG  1   6   1
M  END
$$$$
