
     RDKit          3D

 31 34  0  0  0  0  0  0  0  0999 V2000
   26.7558  -28.7906  -42.6382 C   0  0  0  0  0  0  0  0  0  0  0  0
   26.2895  -29.3047  -43.9810 C   0  0  0  0  0  0  0  0  0  0  0  0
   25.1428  -28.6191  -44.4241 O   0  0  0  0  0  0  0  0  0  0  0  0
   25.3959  -27.2310  -44.4358 C   0  0  0  0  0  0  0  0  0  0  0  0
   25.7568  -26.7179  -43.0589 C   0  0  0  0  0  0  0  0  0  0  0  0
   25.7742  -27.8422  -42.1615 N   0  0  0  0  0  4  0  0  0  0  0  0
   26.0082  -27.4577  -40.7873 C   0  0  0  0  0  0  0  0  0  0  0  0
   27.3929  -26.8749  -40.5935 C   0  0  0  0  0  0  0  0  0  0  0  0
   27.9308  -27.3999  -39.2862 C   0  0  0  0  0  0  0  0  0  0  0  0
   29.1992  -26.9193  -38.9805 O   0  0  0  0  0  0  0  0  0  0  0  0
   29.5366  -25.9688  -38.0499 C   0  0  0  0  0  0  0  0  0  0  0  0
   30.3711  -26.3692  -37.0105 C   0  0  0  0  0  0  0  0  0  0  0  0
   30.7646  -25.4837  -36.0263 C   0  0  0  0  0  0  0  0  0  0  0  0
   30.8305  -27.6721  -36.9344 O   0  0  0  0  0  0  0  0  0  0  0  0
   31.7408  -28.0334  -35.9213 C   0  0  0  0  0  0  0  0  0  0  0  0
   29.0993  -24.6640  -38.0923 C   0  0  0  0  0  0  0  0  0  0  0  0
   29.4765  -23.7584  -37.1219 C   0  0  0  0  0  0  0  0  0  0  0  0
   30.3196  -24.1711  -36.0750 C   0  0  0  0  0  0  0  0  0  0  0  0
   30.6620  -23.2823  -35.1479 N   0  0  0  0  0  0  0  0  0  0  0  0
   30.2283  -22.0068  -35.1799 C   0  0  0  0  0  0  0  0  0  0  0  0
   29.4230  -21.6400  -36.1922 N   0  0  0  0  0  0  0  0  0  0  0  0
   29.0231  -22.4631  -37.1733 C   0  0  0  0  0  0  0  0  0  0  0  0
   28.1790  -22.0457  -38.2198 N   0  0  0  0  0  0  0  0  0  0  0  0
   27.8519  -20.6947  -38.4877 C   0  0  0  0  0  0  0  0  0  0  0  0
   28.8021  -19.6974  -38.4094 C   0  0  0  0  0  0  0  0  0  0  0  0
   28.5400  -18.3671  -38.6657 C   0  0  0  0  0  0  0  0  0  0  0  0
   29.7619  -17.1185  -38.5649 Cl  0  0  0  0  0  0  0  0  0  0  0  0
   27.2539  -17.9684  -39.0263 C   0  0  0  0  0  0  0  0  0  0  0  0
   26.9799  -16.6653  -39.2826 F   0  0  0  0  0  0  0  0  0  0  0  0
   26.2981  -18.9546  -39.1070 C   0  0  0  0  0  0  0  0  0  0  0  0
   26.5713  -20.2883  -38.8483 C   0  0  0  0  0  0  0  0  0  0  0  0
 20 19  2  0
 20 21  1  0
 18 13  1  0
 18 17  2  0
 18 19  1  0
 17 16  1  0
 17 22  1  0
 22 21  2  0
 22 23  1  0
 15 14  1  0
 30 28  1  0
 30 31  2  0
 31 24  1  0
 25 24  2  0
 25 26  1  0
 13 12  2  0
 16 11  2  0
  8  7  1  0
  8  9  1  0
  9 10  1  0
  2  1  1  0
  2  3  1  0
  4  3  1  0
  4  5  1  0
  7  6  1  0
  1  6  1  0
  5  6  1  0
 28 26  2  0
 28 29  1  0
 26 27  1  0
 24 23  1  0
 12 11  1  0
 12 14  1  0
 11 10  1  0
M  CHG  1   6   1
M  END
$$$$
