
     RDKit          3D

 31 34  0  0  0  0  0  0  0  0999 V2000
   25.4534  -29.3567  -42.5992 C   0  0  0  0  0  0  0  0  0  0  0  0
   25.4503  -30.5280  -43.5546 C   0  0  0  0  0  0  0  0  0  0  0  0
   26.3401  -31.5353  -43.1361 O   0  0  0  0  0  0  0  0  0  0  0  0
   26.0342  -31.9173  -41.8127 C   0  0  0  0  0  0  0  0  0  0  0  0
   26.1478  -30.7517  -40.8548 C   0  0  0  0  0  0  0  0  0  0  0  0
   26.4940  -29.5847  -41.6218 N   0  0  0  0  0  4  0  0  0  0  0  0
   26.7316  -28.4222  -40.7953 C   0  0  0  0  0  0  0  0  0  0  0  0
   28.0770  -27.7899  -41.0861 C   0  0  0  0  0  0  0  0  0  0  0  0
   28.1865  -26.5420  -40.2466 C   0  0  0  0  0  0  0  0  0  0  0  0
   28.4982  -26.7994  -38.9162 O   0  0  0  0  0  0  0  0  0  0  0  0
   28.9479  -25.9120  -37.9709 C   0  0  0  0  0  0  0  0  0  0  0  0
   29.7460  -26.4235  -36.9519 C   0  0  0  0  0  0  0  0  0  0  0  0
   30.2450  -25.6080  -35.9552 C   0  0  0  0  0  0  0  0  0  0  0  0
   30.0619  -27.7699  -36.9094 O   0  0  0  0  0  0  0  0  0  0  0  0
   30.8887  -28.2609  -35.8795 C   0  0  0  0  0  0  0  0  0  0  0  0
   28.6546  -24.5668  -37.9801 C   0  0  0  0  0  0  0  0  0  0  0  0
   29.1394  -23.7292  -36.9965 C   0  0  0  0  0  0  0  0  0  0  0  0
   29.9448  -24.2541  -35.9704 C   0  0  0  0  0  0  0  0  0  0  0  0
   30.3928  -23.4285  -35.0299 N   0  0  0  0  0  0  0  0  0  0  0  0
   30.1000  -22.1130  -35.0292 C   0  0  0  0  0  0  0  0  0  0  0  0
   29.3276  -21.6387  -36.0223 N   0  0  0  0  0  0  0  0  0  0  0  0
   28.8291  -22.3915  -37.0146 C   0  0  0  0  0  0  0  0  0  0  0  0
   28.0232  -21.8619  -38.0402 N   0  0  0  0  0  0  0  0  0  0  0  0
   27.7815  -20.4800  -38.2290 C   0  0  0  0  0  0  0  0  0  0  0  0
   28.7965  -19.5522  -38.1160 C   0  0  0  0  0  0  0  0  0  0  0  0
   28.6185  -18.1956  -38.2957 C   0  0  0  0  0  0  0  0  0  0  0  0
   29.9214  -17.0364  -38.1520 Cl  0  0  0  0  0  0  0  0  0  0  0  0
   27.3560  -17.6952  -38.6094 C   0  0  0  0  0  0  0  0  0  0  0  0
   27.1643  -16.3651  -38.7903 F   0  0  0  0  0  0  0  0  0  0  0  0
   26.3361  -18.6115  -38.7241 C   0  0  0  0  0  0  0  0  0  0  0  0
   26.5249  -19.9722  -38.5425 C   0  0  0  0  0  0  0  0  0  0  0  0
 20 19  2  0
 20 21  1  0
 18 13  1  0
 18 17  2  0
 18 19  1  0
 17 16  1  0
 17 22  1  0
 22 21  2  0
 22 23  1  0
 15 14  1  0
 30 28  1  0
 30 31  2  0
 31 24  1  0
 25 24  2  0
 25 26  1  0
 13 12  2  0
 16 11  2  0
  8  7  1  0
  8  9  1  0
  9 10  1  0
  2  1  1  0
  2  3  1  0
  4  3  1  0
  4  5  1  0
  7  6  1  0
  1  6  1  0
  5  6  1  0
 28 26  2  0
 28 29  1  0
 26 27  1  0
 24 23  1  0
 12 11  1  0
 12 14  1  0
 11 10  1  0
M  CHG  1   6   1
M  END
$$$$
