
     RDKit          3D

 31 34  0  0  0  0  0  0  0  0999 V2000
   24.7647  -26.9984  -43.0751 C   0  0  0  0  0  0  0  0  0  0  0  0
   24.3299  -27.9717  -44.1468 C   0  0  0  0  0  0  0  0  0  0  0  0
   24.8489  -29.2591  -43.9133 O   0  0  0  0  0  0  0  0  0  0  0  0
   24.4894  -29.6868  -42.6176 C   0  0  0  0  0  0  0  0  0  0  0  0
   25.0264  -28.7552  -41.5532 C   0  0  0  0  0  0  0  0  0  0  0  0
   25.7098  -27.6771  -42.2169 N   0  0  0  0  0  4  0  0  0  0  0  0
   26.3570  -26.7720  -41.2933 C   0  0  0  0  0  0  0  0  0  0  0  0
   27.7047  -27.2962  -40.8424 C   0  0  0  0  0  0  0  0  0  0  0  0
   27.7838  -27.1264  -39.3461 C   0  0  0  0  0  0  0  0  0  0  0  0
   29.0761  -26.9001  -38.8855 O   0  0  0  0  0  0  0  0  0  0  0  0
   29.4838  -26.0004  -37.9328 C   0  0  0  0  0  0  0  0  0  0  0  0
   30.3385  -26.4727  -36.9412 C   0  0  0  0  0  0  0  0  0  0  0  0
   30.8016  -25.6422  -35.9396 C   0  0  0  0  0  0  0  0  0  0  0  0
   30.7487  -27.7942  -36.9317 O   0  0  0  0  0  0  0  0  0  0  0  0
   31.9093  -28.1599  -36.2213 C   0  0  0  0  0  0  0  0  0  0  0  0
   29.0970  -24.6792  -37.9095 C   0  0  0  0  0  0  0  0  0  0  0  0
   29.5441  -23.8274  -36.9202 C   0  0  0  0  0  0  0  0  0  0  0  0
   30.4072  -24.3128  -35.9219 C   0  0  0  0  0  0  0  0  0  0  0  0
   30.8174  -23.4747  -34.9753 N   0  0  0  0  0  0  0  0  0  0  0  0
   30.4335  -22.1833  -34.9426 C   0  0  0  0  0  0  0  0  0  0  0  0
   29.6075  -21.7467  -35.9096 N   0  0  0  0  0  0  0  0  0  0  0  0
   29.1406  -22.5148  -36.9056 C   0  0  0  0  0  0  0  0  0  0  0  0
   28.2767  -22.0249  -37.9033 N   0  0  0  0  0  0  0  0  0  0  0  0
   27.9244  -20.6619  -38.0518 C   0  0  0  0  0  0  0  0  0  0  0  0
   28.8819  -19.6685  -38.0443 C   0  0  0  0  0  0  0  0  0  0  0  0
   28.5955  -18.3266  -38.1910 C   0  0  0  0  0  0  0  0  0  0  0  0
   29.8266  -17.0831  -38.1831 Cl  0  0  0  0  0  0  0  0  0  0  0  0
   27.2755  -17.9113  -38.3578 C   0  0  0  0  0  0  0  0  0  0  0  0
   26.9771  -16.5967  -38.5045 F   0  0  0  0  0  0  0  0  0  0  0  0
   26.3121  -18.8935  -38.3663 C   0  0  0  0  0  0  0  0  0  0  0  0
   26.6098  -20.2388  -38.2189 C   0  0  0  0  0  0  0  0  0  0  0  0
 20 19  2  0
 20 21  1  0
 18 13  1  0
 18 17  2  0
 18 19  1  0
 17 16  1  0
 17 22  1  0
 22 21  2  0
 22 23  1  0
 15 14  1  0
 30 28  1  0
 30 31  2  0
 31 24  1  0
 25 24  2  0
 25 26  1  0
 13 12  2  0
 16 11  2  0
  8  7  1  0
  8  9  1  0
  9 10  1  0
  2  1  1  0
  2  3  1  0
  4  3  1  0
  4  5  1  0
  7  6  1  0
  1  6  1  0
  5  6  1  0
 28 26  2  0
 28 29  1  0
 26 27  1  0
 24 23  1  0
 12 11  1  0
 12 14  1  0
 11 10  1  0
M  CHG  1   6   1
M  END
$$$$
