
     RDKit          3D

 31 34  0  0  0  0  0  0  0  0999 V2000
   28.0097  -30.4668  -42.4851 C   0  0  0  0  0  0  0  0  0  0  0  0
   27.3574  -31.1342  -43.6741 C   0  0  0  0  0  0  0  0  0  0  0  0
   26.1101  -30.5528  -43.9699 O   0  0  0  0  0  0  0  0  0  0  0  0
   26.2668  -29.1621  -44.1502 C   0  0  0  0  0  0  0  0  0  0  0  0
   26.8213  -28.4973  -42.9093 C   0  0  0  0  0  0  0  0  0  0  0  0
   27.0634  -29.5244  -41.9314 N   0  0  0  0  0  4  0  0  0  0  0  0
   27.5010  -28.9939  -40.6594 C   0  0  0  0  0  0  0  0  0  0  0  0
   28.1360  -27.6267  -40.8078 C   0  0  0  0  0  0  0  0  0  0  0  0
   27.9208  -26.8801  -39.5155 C   0  0  0  0  0  0  0  0  0  0  0  0
   29.0303  -26.8992  -38.6776 O   0  0  0  0  0  0  0  0  0  0  0  0
   29.4892  -25.8916  -37.8667 C   0  0  0  0  0  0  0  0  0  0  0  0
   30.4212  -26.2380  -36.8930 C   0  0  0  0  0  0  0  0  0  0  0  0
   30.9401  -25.2929  -36.0297 C   0  0  0  0  0  0  0  0  0  0  0  0
   30.8546  -27.5456  -36.7623 O   0  0  0  0  0  0  0  0  0  0  0  0
   31.8120  -27.8689  -35.7804 C   0  0  0  0  0  0  0  0  0  0  0  0
   29.0815  -24.5803  -37.9665 C   0  0  0  0  0  0  0  0  0  0  0  0
   29.5831  -23.6157  -37.1168 C   0  0  0  0  0  0  0  0  0  0  0  0
   30.5242  -23.9742  -36.1356 C   0  0  0  0  0  0  0  0  0  0  0  0
   30.9862  -23.0285  -35.3238 N   0  0  0  0  0  0  0  0  0  0  0  0
   30.5826  -21.7458  -35.4112 C   0  0  0  0  0  0  0  0  0  0  0  0
   29.6816  -21.4317  -36.3586 N   0  0  0  0  0  0  0  0  0  0  0  0
   29.1583  -22.3141  -37.2230 C   0  0  0  0  0  0  0  0  0  0  0  0
   28.2163  -21.9509  -38.2042 N   0  0  0  0  0  0  0  0  0  0  0  0
   27.9245  -20.6154  -38.5716 C   0  0  0  0  0  0  0  0  0  0  0  0
   28.8767  -19.6213  -38.4782 C   0  0  0  0  0  0  0  0  0  0  0  0
   28.6487  -18.3060  -38.8281 C   0  0  0  0  0  0  0  0  0  0  0  0
   29.8728  -17.0616  -38.7060 Cl  0  0  0  0  0  0  0  0  0  0  0  0
   27.3976  -17.9204  -39.3063 C   0  0  0  0  0  0  0  0  0  0  0  0
   27.1574  -16.6323  -39.6555 F   0  0  0  0  0  0  0  0  0  0  0  0
   26.4400  -18.9035  -39.4031 C   0  0  0  0  0  0  0  0  0  0  0  0
   26.6789  -20.2220  -39.0499 C   0  0  0  0  0  0  0  0  0  0  0  0
 20 19  2  0
 20 21  1  0
 18 13  1  0
 18 17  2  0
 18 19  1  0
 17 16  1  0
 17 22  1  0
 22 21  2  0
 22 23  1  0
 15 14  1  0
 30 28  1  0
 30 31  2  0
 31 24  1  0
 25 24  2  0
 25 26  1  0
 13 12  2  0
 16 11  2  0
  8  7  1  0
  8  9  1  0
  9 10  1  0
  2  1  1  0
  2  3  1  0
  4  3  1  0
  4  5  1  0
  7  6  1  0
  1  6  1  0
  5  6  1  0
 28 26  2  0
 28 29  1  0
 26 27  1  0
 24 23  1  0
 12 11  1  0
 12 14  1  0
 11 10  1  0
M  CHG  1   6   1
M  END
$$$$
