
     RDKit          3D

 31 34  0  0  0  0  0  0  0  0999 V2000
   24.9265  -28.2575  -43.6456 C   0  0  0  0  0  0  0  0  0  0  0  0
   24.7127  -29.4843  -44.5024 C   0  0  0  0  0  0  0  0  0  0  0  0
   25.4319  -30.5886  -44.0078 O   0  0  0  0  0  0  0  0  0  0  0  0
   25.0919  -30.8083  -42.6561 C   0  0  0  0  0  0  0  0  0  0  0  0
   25.4139  -29.6052  -41.7969 C   0  0  0  0  0  0  0  0  0  0  0  0
   25.9333  -28.5765  -42.6582 N   0  0  0  0  0  4  0  0  0  0  0  0
   26.3746  -27.4075  -41.9304 C   0  0  0  0  0  0  0  0  0  0  0  0
   27.6188  -27.6891  -41.1135 C   0  0  0  0  0  0  0  0  0  0  0  0
   27.6861  -26.6596  -40.0138 C   0  0  0  0  0  0  0  0  0  0  0  0
   28.7469  -26.8593  -39.1372 O   0  0  0  0  0  0  0  0  0  0  0  0
   29.2980  -25.9553  -38.2642 C   0  0  0  0  0  0  0  0  0  0  0  0
   30.2991  -26.4226  -37.4178 C   0  0  0  0  0  0  0  0  0  0  0  0
   30.9128  -25.5874  -36.5048 C   0  0  0  0  0  0  0  0  0  0  0  0
   30.7080  -27.7435  -37.4680 O   0  0  0  0  0  0  0  0  0  0  0  0
   31.4460  -28.2870  -36.3978 C   0  0  0  0  0  0  0  0  0  0  0  0
   28.9174  -24.6344  -38.1853 C   0  0  0  0  0  0  0  0  0  0  0  0
   29.5133  -23.7781  -37.2821 C   0  0  0  0  0  0  0  0  0  0  0  0
   30.5238  -24.2584  -36.4304 C   0  0  0  0  0  0  0  0  0  0  0  0
   31.0765  -23.4160  -35.5634 N   0  0  0  0  0  0  0  0  0  0  0  0
   30.7003  -22.1250  -35.4757 C   0  0  0  0  0  0  0  0  0  0  0  0
   29.7315  -21.6932  -36.3021 N   0  0  0  0  0  0  0  0  0  0  0  0
   29.1149  -22.4659  -37.2091 C   0  0  0  0  0  0  0  0  0  0  0  0
   28.1037  -21.9810  -38.0601 N   0  0  0  0  0  0  0  0  0  0  0  0
   27.8992  -20.6113  -38.3532 C   0  0  0  0  0  0  0  0  0  0  0  0
   28.4283  -19.6197  -37.5529 C   0  0  0  0  0  0  0  0  0  0  0  0
   28.2656  -18.2709  -37.7949 C   0  0  0  0  0  0  0  0  0  0  0  0
   28.9497  -17.0294  -36.7689 Cl  0  0  0  0  0  0  0  0  0  0  0  0
   27.5304  -17.8463  -38.9003 C   0  0  0  0  0  0  0  0  0  0  0  0
   27.3620  -16.5247  -39.1530 F   0  0  0  0  0  0  0  0  0  0  0  0
   26.9976  -18.8267  -39.7052 C   0  0  0  0  0  0  0  0  0  0  0  0
   27.1672  -20.1788  -39.4542 C   0  0  0  0  0  0  0  0  0  0  0  0
 20 19  2  0
 20 21  1  0
 18 13  1  0
 18 17  2  0
 18 19  1  0
 17 16  1  0
 17 22  1  0
 22 21  2  0
 22 23  1  0
 15 14  1  0
 30 28  1  0
 30 31  2  0
 31 24  1  0
 25 24  2  0
 25 26  1  0
 13 12  2  0
 16 11  2  0
  8  7  1  0
  8  9  1  0
  9 10  1  0
  2  1  1  0
  2  3  1  0
  4  3  1  0
  4  5  1  0
  7  6  1  0
  1  6  1  0
  5  6  1  0
 28 26  2  0
 28 29  1  0
 26 27  1  0
 24 23  1  0
 12 11  1  0
 12 14  1  0
 11 10  1  0
M  CHG  1   6   1
M  END
$$$$
