
     RDKit          3D

 31 34  0  0  0  0  0  0  0  0999 V2000
   24.2800  -29.5809  -41.0582 C   0  0  0  0  0  0  0  0  0  0  0  0
   23.4698  -30.2554  -42.1414 C   0  0  0  0  0  0  0  0  0  0  0  0
   24.1958  -30.3488  -43.3438 O   0  0  0  0  0  0  0  0  0  0  0  0
   25.4252  -30.9990  -43.1052 C   0  0  0  0  0  0  0  0  0  0  0  0
   26.2669  -30.2487  -42.0963 C   0  0  0  0  0  0  0  0  0  0  0  0
   25.5097  -29.1082  -41.6537 N   0  0  0  0  0  4  0  0  0  0  0  0
   26.2573  -28.2536  -40.7583 C   0  0  0  0  0  0  0  0  0  0  0  0
   27.5657  -27.8012  -41.3730 C   0  0  0  0  0  0  0  0  0  0  0  0
   28.0477  -26.6044  -40.5924 C   0  0  0  0  0  0  0  0  0  0  0  0
   28.6509  -26.9411  -39.3857 O   0  0  0  0  0  0  0  0  0  0  0  0
   29.1017  -26.0931  -38.4054 C   0  0  0  0  0  0  0  0  0  0  0  0
   29.9202  -26.6410  -37.4221 C   0  0  0  0  0  0  0  0  0  0  0  0
   30.4219  -25.8665  -36.3945 C   0  0  0  0  0  0  0  0  0  0  0  0
   30.2542  -27.9835  -37.4474 O   0  0  0  0  0  0  0  0  0  0  0  0
   31.1004  -28.5112  -36.4520 C   0  0  0  0  0  0  0  0  0  0  0  0
   28.7907  -24.7531  -38.3472 C   0  0  0  0  0  0  0  0  0  0  0  0
   29.2777  -23.9562  -37.3314 C   0  0  0  0  0  0  0  0  0  0  0  0
   30.1038  -24.5177  -36.3418 C   0  0  0  0  0  0  0  0  0  0  0  0
   30.5536  -23.7312  -35.3692 N   0  0  0  0  0  0  0  0  0  0  0  0
   30.2437  -22.4214  -35.3026 C   0  0  0  0  0  0  0  0  0  0  0  0
   29.4517  -21.9115  -36.2620 N   0  0  0  0  0  0  0  0  0  0  0  0
   28.9496  -22.6235  -37.2822 C   0  0  0  0  0  0  0  0  0  0  0  0
   28.1230  -22.0573  -38.2711 N   0  0  0  0  0  0  0  0  0  0  0  0
   27.9649  -20.6655  -38.4751 C   0  0  0  0  0  0  0  0  0  0  0  0
   29.0454  -19.8081  -38.4400 C   0  0  0  0  0  0  0  0  0  0  0  0
   28.9496  -18.4457  -38.6378 C   0  0  0  0  0  0  0  0  0  0  0  0
   30.3343  -17.3768  -38.5936 Cl  0  0  0  0  0  0  0  0  0  0  0  0
   27.7077  -17.8650  -38.8892 C   0  0  0  0  0  0  0  0  0  0  0  0
   27.5964  -16.5281  -39.0869 F   0  0  0  0  0  0  0  0  0  0  0  0
   26.6231  -18.7106  -38.9259 C   0  0  0  0  0  0  0  0  0  0  0  0
   26.7295  -20.0777  -38.7266 C   0  0  0  0  0  0  0  0  0  0  0  0
 20 19  2  0
 20 21  1  0
 18 13  1  0
 18 17  2  0
 18 19  1  0
 17 16  1  0
 17 22  1  0
 22 21  2  0
 22 23  1  0
 15 14  1  0
 30 28  1  0
 30 31  2  0
 31 24  1  0
 25 24  2  0
 25 26  1  0
 13 12  2  0
 16 11  2  0
  8  7  1  0
  8  9  1  0
  9 10  1  0
  2  1  1  0
  2  3  1  0
  4  3  1  0
  4  5  1  0
  7  6  1  0
  1  6  1  0
  5  6  1  0
 28 26  2  0
 28 29  1  0
 26 27  1  0
 24 23  1  0
 12 11  1  0
 12 14  1  0
 11 10  1  0
M  CHG  1   6   1
M  END
$$$$
