
     RDKit          3D

 31 34  0  0  0  0  0  0  0  0999 V2000
   24.6403  -29.3937  -42.0445 C   0  0  0  0  0  0  0  0  0  0  0  0
   24.0026  -29.4926  -43.4114 C   0  0  0  0  0  0  0  0  0  0  0  0
   24.9344  -29.2316  -44.4336 O   0  0  0  0  0  0  0  0  0  0  0  0
   26.0449  -30.0906  -44.2927 C   0  0  0  0  0  0  0  0  0  0  0  0
   26.7331  -29.8989  -42.9590 C   0  0  0  0  0  0  0  0  0  0  0  0
   25.9921  -28.9118  -42.2199 N   0  0  0  0  0  4  0  0  0  0  0  0
   26.6174  -28.5687  -40.9620 C   0  0  0  0  0  0  0  0  0  0  0  0
   27.9815  -27.9417  -41.1637 C   0  0  0  0  0  0  0  0  0  0  0  0
   28.0516  -26.7107  -40.2956 C   0  0  0  0  0  0  0  0  0  0  0  0
   28.8233  -26.8867  -39.1525 O   0  0  0  0  0  0  0  0  0  0  0  0
   29.2678  -25.9239  -38.2814 C   0  0  0  0  0  0  0  0  0  0  0  0
   30.1386  -26.3337  -37.2761 C   0  0  0  0  0  0  0  0  0  0  0  0
   30.6386  -25.4371  -36.3522 C   0  0  0  0  0  0  0  0  0  0  0  0
   30.5282  -27.6575  -37.1743 O   0  0  0  0  0  0  0  0  0  0  0  0
   31.4255  -28.0451  -36.1593 C   0  0  0  0  0  0  0  0  0  0  0  0
   28.9024  -24.5982  -38.3511 C   0  0  0  0  0  0  0  0  0  0  0  0
   29.3865  -23.6811  -37.4408 C   0  0  0  0  0  0  0  0  0  0  0  0
   30.2657  -24.1035  -36.4280 C   0  0  0  0  0  0  0  0  0  0  0  0
   30.7116  -23.2027  -35.5583 N   0  0  0  0  0  0  0  0  0  0  0  0
   30.3488  -21.9061  -35.6165 C   0  0  0  0  0  0  0  0  0  0  0  0
   29.5067  -21.5305  -36.5951 N   0  0  0  0  0  0  0  0  0  0  0  0
   29.0040  -22.3644  -37.5181 C   0  0  0  0  0  0  0  0  0  0  0  0
   28.1241  -21.9373  -38.5306 N   0  0  0  0  0  0  0  0  0  0  0  0
   27.8702  -20.5805  -38.8441 C   0  0  0  0  0  0  0  0  0  0  0  0
   28.8780  -19.6383  -38.8219 C   0  0  0  0  0  0  0  0  0  0  0  0
   28.6881  -18.3054  -39.1243 C   0  0  0  0  0  0  0  0  0  0  0  0
   29.9820  -17.1278  -39.0944 Cl  0  0  0  0  0  0  0  0  0  0  0  0
   27.4201  -17.8457  -39.4760 C   0  0  0  0  0  0  0  0  0  0  0  0
   27.2167  -16.5393  -39.7771 F   0  0  0  0  0  0  0  0  0  0  0  0
   26.4073  -18.7766  -39.5009 C   0  0  0  0  0  0  0  0  0  0  0  0
   26.6081  -20.1133  -39.1962 C   0  0  0  0  0  0  0  0  0  0  0  0
 20 19  2  0
 20 21  1  0
 18 13  1  0
 18 17  2  0
 18 19  1  0
 17 16  1  0
 17 22  1  0
 22 21  2  0
 22 23  1  0
 15 14  1  0
 30 28  1  0
 30 31  2  0
 31 24  1  0
 25 24  2  0
 25 26  1  0
 13 12  2  0
 16 11  2  0
  8  7  1  0
  8  9  1  0
  9 10  1  0
  2  1  1  0
  2  3  1  0
  4  3  1  0
  4  5  1  0
  7  6  1  0
  1  6  1  0
  5  6  1  0
 28 26  2  0
 28 29  1  0
 26 27  1  0
 24 23  1  0
 12 11  1  0
 12 14  1  0
 11 10  1  0
M  CHG  1   6   1
M  END
$$$$
