
     RDKit          3D

 31 34  0  0  0  0  0  0  0  0999 V2000
   26.4037  -30.1829  -42.4562 C   0  0  0  0  0  0  0  0  0  0  0  0
   25.1237  -30.9868  -42.4627 C   0  0  0  0  0  0  0  0  0  0  0  0
   24.0528  -30.2529  -41.9183 O   0  0  0  0  0  0  0  0  0  0  0  0
   23.9231  -29.0260  -42.6030 C   0  0  0  0  0  0  0  0  0  0  0  0
   25.1795  -28.1900  -42.4933 C   0  0  0  0  0  0  0  0  0  0  0  0
   26.1484  -28.9486  -41.7479 N   0  0  0  0  0  4  0  0  0  0  0  0
   27.3619  -28.2059  -41.4894 C   0  0  0  0  0  0  0  0  0  0  0  0
   27.1437  -27.1082  -40.4686 C   0  0  0  0  0  0  0  0  0  0  0  0
   28.4828  -26.4760  -40.1840 C   0  0  0  0  0  0  0  0  0  0  0  0
   28.9351  -26.7044  -38.8892 O   0  0  0  0  0  0  0  0  0  0  0  0
   29.3297  -25.7749  -37.9599 C   0  0  0  0  0  0  0  0  0  0  0  0
   30.1052  -26.2314  -36.8983 C   0  0  0  0  0  0  0  0  0  0  0  0
   30.5492  -25.3706  -35.9136 C   0  0  0  0  0  0  0  0  0  0  0  0
   30.4533  -27.5669  -36.7998 O   0  0  0  0  0  0  0  0  0  0  0  0
   31.5821  -27.9402  -36.0435 C   0  0  0  0  0  0  0  0  0  0  0  0
   29.0031  -24.4389  -38.0243 C   0  0  0  0  0  0  0  0  0  0  0  0
   29.4327  -23.5569  -37.0539 C   0  0  0  0  0  0  0  0  0  0  0  0
   30.2157  -24.0264  -35.9845 C   0  0  0  0  0  0  0  0  0  0  0  0
   30.6102  -23.1587  -35.0581 N   0  0  0  0  0  0  0  0  0  0  0  0
   30.2846  -21.8521  -35.1115 C   0  0  0  0  0  0  0  0  0  0  0  0
   29.5347  -21.4312  -36.1452 N   0  0  0  0  0  0  0  0  0  0  0  0
   29.0895  -22.2292  -37.1275 C   0  0  0  0  0  0  0  0  0  0  0  0
   28.3060  -21.7551  -38.1967 N   0  0  0  0  0  0  0  0  0  0  0  0
   27.9296  -20.4013  -38.3684 C   0  0  0  0  0  0  0  0  0  0  0  0
   28.8499  -19.3802  -38.2489 C   0  0  0  0  0  0  0  0  0  0  0  0
   28.5395  -18.0455  -38.4120 C   0  0  0  0  0  0  0  0  0  0  0  0
   29.7239  -16.7664  -38.2606 Cl  0  0  0  0  0  0  0  0  0  0  0  0
   27.2325  -17.6673  -38.7144 C   0  0  0  0  0  0  0  0  0  0  0  0
   26.9110  -16.3602  -38.8790 F   0  0  0  0  0  0  0  0  0  0  0  0
   26.3062  -18.6773  -38.8354 C   0  0  0  0  0  0  0  0  0  0  0  0
   26.6279  -20.0151  -38.6704 C   0  0  0  0  0  0  0  0  0  0  0  0
 20 19  2  0
 20 21  1  0
 18 13  1  0
 18 17  2  0
 18 19  1  0
 17 16  1  0
 17 22  1  0
 22 21  2  0
 22 23  1  0
 15 14  1  0
 30 28  1  0
 30 31  2  0
 31 24  1  0
 25 24  2  0
 25 26  1  0
 13 12  2  0
 16 11  2  0
  8  7  1  0
  8  9  1  0
  9 10  1  0
  2  1  1  0
  2  3  1  0
  4  3  1  0
  4  5  1  0
  7  6  1  0
  1  6  1  0
  5  6  1  0
 28 26  2  0
 28 29  1  0
 26 27  1  0
 24 23  1  0
 12 11  1  0
 12 14  1  0
 11 10  1  0
M  CHG  1   6   1
M  END
$$$$
