
     RDKit          3D

 31 34  0  0  0  0  0  0  0  0999 V2000
   26.4161  -28.2064  -42.9670 C   0  0  0  0  0  0  0  0  0  0  0  0
   25.7743  -28.7127  -44.2384 C   0  0  0  0  0  0  0  0  0  0  0  0
   25.7085  -30.1187  -44.2566 O   0  0  0  0  0  0  0  0  0  0  0  0
   25.0459  -30.5767  -43.0980 C   0  0  0  0  0  0  0  0  0  0  0  0
   25.7653  -30.1487  -41.8376 C   0  0  0  0  0  0  0  0  0  0  0  0
   26.8978  -29.3514  -42.2272 N   0  0  0  0  0  4  0  0  0  0  0  0
   27.7250  -28.9682  -41.1047 C   0  0  0  0  0  0  0  0  0  0  0  0
   27.2555  -27.6727  -40.4755 C   0  0  0  0  0  0  0  0  0  0  0  0
   28.4165  -26.7105  -40.4901 C   0  0  0  0  0  0  0  0  0  0  0  0
   29.3302  -26.9351  -39.4664 O   0  0  0  0  0  0  0  0  0  0  0  0
   29.6625  -26.0920  -38.4358 C   0  0  0  0  0  0  0  0  0  0  0  0
   30.4313  -26.6248  -37.4053 C   0  0  0  0  0  0  0  0  0  0  0  0
   30.8144  -25.8539  -36.3253 C   0  0  0  0  0  0  0  0  0  0  0  0
   30.8336  -27.9483  -37.4348 O   0  0  0  0  0  0  0  0  0  0  0  0
   31.6524  -28.4523  -36.4047 C   0  0  0  0  0  0  0  0  0  0  0  0
   29.2808  -24.7707  -38.3717 C   0  0  0  0  0  0  0  0  0  0  0  0
   29.6491  -23.9777  -37.3041 C   0  0  0  0  0  0  0  0  0  0  0  0
   30.4256  -24.5240  -36.2670 C   0  0  0  0  0  0  0  0  0  0  0  0
   30.7606  -23.7421  -35.2456 N   0  0  0  0  0  0  0  0  0  0  0  0
   30.3808  -22.4511  -35.1737 C   0  0  0  0  0  0  0  0  0  0  0  0
   29.6385  -21.9555  -36.1793 N   0  0  0  0  0  0  0  0  0  0  0  0
   29.2514  -22.6644  -37.2505 C   0  0  0  0  0  0  0  0  0  0  0  0
   28.4740  -22.1135  -38.2869 N   0  0  0  0  0  0  0  0  0  0  0  0
   28.1149  -20.7469  -38.3723 C   0  0  0  0  0  0  0  0  0  0  0  0
   29.0615  -19.7486  -38.2670 C   0  0  0  0  0  0  0  0  0  0  0  0
   28.7684  -18.4026  -38.3489 C   0  0  0  0  0  0  0  0  0  0  0  0
   29.9858  -17.1526  -38.2172 Cl  0  0  0  0  0  0  0  0  0  0  0  0
   27.4525  -17.9881  -38.5479 C   0  0  0  0  0  0  0  0  0  0  0  0
   27.1477  -16.6694  -38.6318 F   0  0  0  0  0  0  0  0  0  0  0  0
   26.5001  -18.9753  -38.6538 C   0  0  0  0  0  0  0  0  0  0  0  0
   26.8045  -20.3246  -38.5709 C   0  0  0  0  0  0  0  0  0  0  0  0
 20 19  2  0
 20 21  1  0
 18 13  1  0
 18 17  2  0
 18 19  1  0
 17 16  1  0
 17 22  1  0
 22 21  2  0
 22 23  1  0
 15 14  1  0
 30 28  1  0
 30 31  2  0
 31 24  1  0
 25 24  2  0
 25 26  1  0
 13 12  2  0
 16 11  2  0
  8  7  1  0
  8  9  1  0
  9 10  1  0
  2  1  1  0
  2  3  1  0
  4  3  1  0
  4  5  1  0
  7  6  1  0
  1  6  1  0
  5  6  1  0
 28 26  2  0
 28 29  1  0
 26 27  1  0
 24 23  1  0
 12 11  1  0
 12 14  1  0
 11 10  1  0
M  CHG  1   6   1
M  END
$$$$
