
     RDKit          3D

 31 34  0  0  0  0  0  0  0  0999 V2000
   13.7183   28.0005  201.6883 C   0  0  0  0  0  0  0  0  0  0  0  0
   15.1633   28.2902  201.3528 C   0  0  0  0  0  0  0  0  0  0  0  0
   15.7679   29.0963  202.3357 O   0  0  0  0  0  0  0  0  0  0  0  0
   15.6184   28.4914  203.6017 C   0  0  0  0  0  0  0  0  0  0  0  0
   14.1610   28.3083  203.9644 C   0  0  0  0  0  0  0  0  0  0  0  0
   13.3704   28.7768  202.8573 N   0  0  0  0  0  4  0  0  0  0  0  0
   11.9509   28.7464  203.1310 C   0  0  0  0  0  0  0  0  0  0  0  0
   11.1368   29.1913  201.9335 C   0  0  0  0  0  0  0  0  0  0  0  0
    9.7639   29.5698  202.4294 C   0  0  0  0  0  0  0  0  0  0  0  0
    8.9844   30.1984  201.4648 O   0  0  0  0  0  0  0  0  0  0  0  0
    7.6821   29.9265  201.1278 C   0  0  0  0  0  0  0  0  0  0  0  0
    6.7542   30.9469  201.3141 C   0  0  0  0  0  0  0  0  0  0  0  0
    5.4203   30.7673  201.0044 C   0  0  0  0  0  0  0  0  0  0  0  0
    7.1451   32.1749  201.8179 O   0  0  0  0  0  0  0  0  0  0  0  0
    6.1895   33.1965  201.9868 C   0  0  0  0  0  0  0  0  0  0  0  0
    7.2559   28.7180  200.6244 C   0  0  0  0  0  0  0  0  0  0  0  0
    5.9290   28.5109  200.3070 C   0  0  0  0  0  0  0  0  0  0  0  0
    4.9980   29.5471  200.4984 C   0  0  0  0  0  0  0  0  0  0  0  0
    3.7244   29.3203  200.1929 N   0  0  0  0  0  0  0  0  0  0  0  0
    3.3009   28.1358  199.7094 C   0  0  0  0  0  0  0  0  0  0  0  0
    4.2130   27.1631  199.5368 N   0  0  0  0  0  0  0  0  0  0  0  0
    5.5186   27.2961  199.8154 C   0  0  0  0  0  0  0  0  0  0  0  0
    6.4476   26.2562  199.6220 N   0  0  0  0  0  0  0  0  0  0  0  0
    6.1990   25.1020  198.8410 C   0  0  0  0  0  0  0  0  0  0  0  0
    5.4544   25.1674  197.6812 C   0  0  0  0  0  0  0  0  0  0  0  0
    5.1870   24.0765  196.8795 C   0  0  0  0  0  0  0  0  0  0  0  0
    4.2437   24.1828  195.4095 Cl  0  0  0  0  0  0  0  0  0  0  0  0
    5.6788   22.8198  197.2282 C   0  0  0  0  0  0  0  0  0  0  0  0
    5.4261   21.7378  196.4507 F   0  0  0  0  0  0  0  0  0  0  0  0
    6.4223   22.7427  198.3832 C   0  0  0  0  0  0  0  0  0  0  0  0
    6.6861   23.8443  199.1814 C   0  0  0  0  0  0  0  0  0  0  0  0
 20 19  2  0
 20 21  1  0
 18 13  1  0
 18 17  2  0
 18 19  1  0
 17 16  1  0
 17 22  1  0
 22 21  2  0
 22 23  1  0
 15 14  1  0
 30 28  1  0
 30 31  2  0
 31 24  1  0
 25 24  2  0
 25 26  1  0
 13 12  2  0
 16 11  2  0
  8  7  1  0
  8  9  1  0
  9 10  1  0
  2  1  1  0
  2  3  1  0
  4  3  1  0
  4  5  1  0
  7  6  1  0
  1  6  1  0
  5  6  1  0
 28 26  2  0
 28 29  1  0
 26 27  1  0
 24 23  1  0
 12 11  1  0
 12 14  1  0
 11 10  1  0
M  CHG  1   6   1
M  END
$$$$
