
     RDKit          3D

 31 34  0  0  0  0  0  0  0  0999 V2000
  -17.5334   11.2058  161.5296 C   0  0  0  0  0  0  0  0  0  0  0  0
  -18.1146   12.5933  161.3825 C   0  0  0  0  0  0  0  0  0  0  0  0
  -18.8873   12.7057  160.2113 O   0  0  0  0  0  0  0  0  0  0  0  0
  -19.8784   11.7013  160.1997 C   0  0  0  0  0  0  0  0  0  0  0  0
  -19.2701   10.3165  160.2395 C   0  0  0  0  0  0  0  0  0  0  0  0
  -17.8418   10.4662  160.3262 N   0  0  0  0  0  4  0  0  0  0  0  0
  -17.1422    9.2020  160.2673 C   0  0  0  0  0  0  0  0  0  0  0  0
  -17.6327    8.2369  161.3268 C   0  0  0  0  0  0  0  0  0  0  0  0
  -16.7105    7.0438  161.3203 C   0  0  0  0  0  0  0  0  0  0  0  0
  -17.1106    6.0439  160.4408 O   0  0  0  0  0  0  0  0  0  0  0  0
  -16.4653    4.8667  160.1560 C   0  0  0  0  0  0  0  0  0  0  0  0
  -17.2345    3.7068  160.1590 C   0  0  0  0  0  0  0  0  0  0  0  0
  -16.6736    2.4749  159.8848 C   0  0  0  0  0  0  0  0  0  0  0  0
  -18.5886    3.7571  160.4390 O   0  0  0  0  0  0  0  0  0  0  0  0
  -19.2702    2.5790  160.8038 C   0  0  0  0  0  0  0  0  0  0  0  0
  -15.1208    4.7775  159.8730 C   0  0  0  0  0  0  0  0  0  0  0  0
  -14.5344    3.5595  159.5960 C   0  0  0  0  0  0  0  0  0  0  0  0
  -15.3186    2.3925  159.6013 C   0  0  0  0  0  0  0  0  0  0  0  0
  -14.7288    1.2304  159.3396 N   0  0  0  0  0  0  0  0  0  0  0  0
  -13.4114    1.1369  159.0719 C   0  0  0  0  0  0  0  0  0  0  0  0
  -12.6860    2.2690  159.0740 N   0  0  0  0  0  0  0  0  0  0  0  0
  -13.1899    3.4866  159.3257 C   0  0  0  0  0  0  0  0  0  0  0  0
  -12.4012    4.6527  159.3192 N   0  0  0  0  0  0  0  0  0  0  0  0
  -11.0652    4.7072  158.8546 C   0  0  0  0  0  0  0  0  0  0  0  0
  -10.5806    3.7812  157.9538 C   0  0  0  0  0  0  0  0  0  0  0  0
   -9.2906    3.7909  157.4637 C   0  0  0  0  0  0  0  0  0  0  0  0
   -8.6979    2.6089  156.3176 Cl  0  0  0  0  0  0  0  0  0  0  0  0
   -8.3959    4.7756  157.8793 C   0  0  0  0  0  0  0  0  0  0  0  0
   -7.1253    4.8000  157.4065 F   0  0  0  0  0  0  0  0  0  0  0  0
   -8.8683    5.7041  158.7780 C   0  0  0  0  0  0  0  0  0  0  0  0
  -10.1659    5.6865  159.2639 C   0  0  0  0  0  0  0  0  0  0  0  0
 20 19  2  0
 20 21  1  0
 18 13  1  0
 18 17  2  0
 18 19  1  0
 17 16  1  0
 17 22  1  0
 22 21  2  0
 22 23  1  0
 15 14  1  0
 30 28  1  0
 30 31  2  0
 31 24  1  0
 25 24  2  0
 25 26  1  0
 13 12  2  0
 16 11  2  0
  8  7  1  0
  8  9  1  0
  9 10  1  0
  2  1  1  0
  2  3  1  0
  4  3  1  0
  4  5  1  0
  7  6  1  0
  1  6  1  0
  5  6  1  0
 28 26  2  0
 28 29  1  0
 26 27  1  0
 24 23  1  0
 12 11  1  0
 12 14  1  0
 11 10  1  0
M  CHG  1   6   1
M  END
$$$$
