
     RDKit          3D

 31 34  0  0  0  0  0  0  0  0999 V2000
   14.3956   29.4950  203.6022 C   0  0  0  0  0  0  0  0  0  0  0  0
   15.2682   28.5949  204.4467 C   0  0  0  0  0  0  0  0  0  0  0  0
   14.9869   27.2361  204.2095 O   0  0  0  0  0  0  0  0  0  0  0  0
   15.1038   26.9621  202.8303 C   0  0  0  0  0  0  0  0  0  0  0  0
   14.1447   27.7983  202.0117 C   0  0  0  0  0  0  0  0  0  0  0  0
   13.4333   28.6624  202.9157 N   0  0  0  0  0  4  0  0  0  0  0  0
   12.4092   29.4413  202.2557 C   0  0  0  0  0  0  0  0  0  0  0  0
   11.4041   28.5608  201.5424 C   0  0  0  0  0  0  0  0  0  0  0  0
   10.3017   29.4510  201.0265 C   0  0  0  0  0  0  0  0  0  0  0  0
    9.1650   29.4396  201.8272 O   0  0  0  0  0  0  0  0  0  0  0  0
    7.8606   29.2756  201.4335 C   0  0  0  0  0  0  0  0  0  0  0  0
    6.9929   30.3399  201.6599 C   0  0  0  0  0  0  0  0  0  0  0  0
    5.6618   30.2680  201.2986 C   0  0  0  0  0  0  0  0  0  0  0  0
    7.4426   31.5043  202.2567 O   0  0  0  0  0  0  0  0  0  0  0  0
    6.5561   32.5850  202.4350 C   0  0  0  0  0  0  0  0  0  0  0  0
    7.3768   28.1327  200.8373 C   0  0  0  0  0  0  0  0  0  0  0  0
    6.0513   28.0336  200.4667 C   0  0  0  0  0  0  0  0  0  0  0  0
    5.1813   29.1134  200.6992 C   0  0  0  0  0  0  0  0  0  0  0  0
    3.9072   28.9903  200.3407 N   0  0  0  0  0  0  0  0  0  0  0  0
    3.4270   27.8700  199.7661 C   0  0  0  0  0  0  0  0  0  0  0  0
    4.2815   26.8533  199.5560 N   0  0  0  0  0  0  0  0  0  0  0  0
    5.5825   26.8827  199.8823 C   0  0  0  0  0  0  0  0  0  0  0  0
    6.4503   25.7993  199.6476 N   0  0  0  0  0  0  0  0  0  0  0  0
    6.0792   24.6154  198.9660 C   0  0  0  0  0  0  0  0  0  0  0  0
    4.8086   24.0899  199.0809 C   0  0  0  0  0  0  0  0  0  0  0  0
    4.3918   22.9439  198.4349 C   0  0  0  0  0  0  0  0  0  0  0  0
    2.7734   22.2971  198.5911 Cl  0  0  0  0  0  0  0  0  0  0  0  0
    5.2759   22.2489  197.6115 C   0  0  0  0  0  0  0  0  0  0  0  0
    4.8819   21.1218  196.9686 F   0  0  0  0  0  0  0  0  0  0  0  0
    6.5460   22.7637  197.4899 C   0  0  0  0  0  0  0  0  0  0  0  0
    6.9549   23.9158  198.1422 C   0  0  0  0  0  0  0  0  0  0  0  0
 20 19  2  0
 20 21  1  0
 18 13  1  0
 18 17  2  0
 18 19  1  0
 17 16  1  0
 17 22  1  0
 22 21  2  0
 22 23  1  0
 15 14  1  0
 30 28  1  0
 30 31  2  0
 31 24  1  0
 25 24  2  0
 25 26  1  0
 13 12  2  0
 16 11  2  0
  8  7  1  0
  8  9  1  0
  9 10  1  0
  2  1  1  0
  2  3  1  0
  4  3  1  0
  4  5  1  0
  7  6  1  0
  1  6  1  0
  5  6  1  0
 28 26  2  0
 28 29  1  0
 26 27  1  0
 24 23  1  0
 12 11  1  0
 12 14  1  0
 11 10  1  0
M  CHG  1   6   1
M  END
$$$$
