
     RDKit          3D

 31 34  0  0  0  0  0  0  0  0999 V2000
   14.0790   31.8596  203.0917 C   0  0  0  0  0  0  0  0  0  0  0  0
   15.3986   31.5860  203.7761 C   0  0  0  0  0  0  0  0  0  0  0  0
   15.8160   30.2567  203.5754 O   0  0  0  0  0  0  0  0  0  0  0  0
   15.8566   29.9767  202.1931 C   0  0  0  0  0  0  0  0  0  0  0  0
   14.4996   30.1537  201.5476 C   0  0  0  0  0  0  0  0  0  0  0  0
   13.5862   30.6078  202.5623 N   0  0  0  0  0  4  0  0  0  0  0  0
   12.2260   30.7146  202.0833 C   0  0  0  0  0  0  0  0  0  0  0  0
   11.5029   29.3848  202.1402 C   0  0  0  0  0  0  0  0  0  0  0  0
   10.3886   29.4267  201.1250 C   0  0  0  0  0  0  0  0  0  0  0  0
    9.2607   30.1049  201.5736 O   0  0  0  0  0  0  0  0  0  0  0  0
    7.9477   29.8467  201.2693 C   0  0  0  0  0  0  0  0  0  0  0  0
    7.0229   30.8456  201.5589 C   0  0  0  0  0  0  0  0  0  0  0  0
    5.6788   30.6773  201.2891 C   0  0  0  0  0  0  0  0  0  0  0  0
    7.4272   32.0399  202.1286 O   0  0  0  0  0  0  0  0  0  0  0  0
    6.4826   33.0609  202.3542 C   0  0  0  0  0  0  0  0  0  0  0  0
    7.5080   28.6714  200.7026 C   0  0  0  0  0  0  0  0  0  0  0  0
    6.1709   28.4764  200.4231 C   0  0  0  0  0  0  0  0  0  0  0  0
    5.2431   29.4906  200.7191 C   0  0  0  0  0  0  0  0  0  0  0  0
    3.9597   29.2754  200.4480 N   0  0  0  0  0  0  0  0  0  0  0  0
    3.5234   28.1228  199.9027 C   0  0  0  0  0  0  0  0  0  0  0  0
    4.4327   27.1705  199.6305 N   0  0  0  0  0  0  0  0  0  0  0  0
    5.7475   27.2941  199.8672 C   0  0  0  0  0  0  0  0  0  0  0  0
    6.6732   26.2763  199.5691 N   0  0  0  0  0  0  0  0  0  0  0  0
    6.3652   25.1144  198.8214 C   0  0  0  0  0  0  0  0  0  0  0  0
    5.5391   25.1697  197.7177 C   0  0  0  0  0  0  0  0  0  0  0  0
    5.2109   24.0709  196.9500 C   0  0  0  0  0  0  0  0  0  0  0  0
    4.1645   24.1645  195.5506 Cl  0  0  0  0  0  0  0  0  0  0  0  0
    5.7225   22.8162  197.2767 C   0  0  0  0  0  0  0  0  0  0  0  0
    5.4108   21.7267  196.5321 F   0  0  0  0  0  0  0  0  0  0  0  0
    6.5471   22.7492  198.3760 C   0  0  0  0  0  0  0  0  0  0  0  0
    6.8715   23.8586  199.1403 C   0  0  0  0  0  0  0  0  0  0  0  0
 20 19  2  0
 20 21  1  0
 18 13  1  0
 18 17  2  0
 18 19  1  0
 17 16  1  0
 17 22  1  0
 22 21  2  0
 22 23  1  0
 15 14  1  0
 30 28  1  0
 30 31  2  0
 31 24  1  0
 25 24  2  0
 25 26  1  0
 13 12  2  0
 16 11  2  0
  8  7  1  0
  8  9  1  0
  9 10  1  0
  2  1  1  0
  2  3  1  0
  4  3  1  0
  4  5  1  0
  7  6  1  0
  1  6  1  0
  5  6  1  0
 28 26  2  0
 28 29  1  0
 26 27  1  0
 24 23  1  0
 12 11  1  0
 12 14  1  0
 11 10  1  0
M  CHG  1   6   1
M  END
$$$$
