
     RDKit          3D

 31 34  0  0  0  0  0  0  0  0999 V2000
   14.5496   27.8072  203.1171 C   0  0  0  0  0  0  0  0  0  0  0  0
   15.8965   28.2868  203.6076 C   0  0  0  0  0  0  0  0  0  0  0  0
   16.0202   29.6838  203.4863 O   0  0  0  0  0  0  0  0  0  0  0  0
   14.9476   30.3137  204.1523 C   0  0  0  0  0  0  0  0  0  0  0  0
   13.6118   29.9007  203.5741 C   0  0  0  0  0  0  0  0  0  0  0  0
   13.8616   28.9376  202.5349 N   0  0  0  0  0  4  0  0  0  0  0  0
   12.6585   28.5442  201.8357 C   0  0  0  0  0  0  0  0  0  0  0  0
   11.5829   29.6071  201.9236 C   0  0  0  0  0  0  0  0  0  0  0  0
   10.2520   28.9287  201.7175 C   0  0  0  0  0  0  0  0  0  0  0  0
    9.1676   29.7294  202.0582 O   0  0  0  0  0  0  0  0  0  0  0  0
    7.8481   29.5420  201.7310 C   0  0  0  0  0  0  0  0  0  0  0  0
    6.9590   30.5529  202.0837 C   0  0  0  0  0  0  0  0  0  0  0  0
    5.6116   30.4540  201.7969 C   0  0  0  0  0  0  0  0  0  0  0  0
    7.4033   31.6898  202.7354 O   0  0  0  0  0  0  0  0  0  0  0  0
    6.4898   32.7147  203.0526 C   0  0  0  0  0  0  0  0  0  0  0  0
    7.3691   28.4253  201.0835 C   0  0  0  0  0  0  0  0  0  0  0  0
    6.0277   28.3001  200.7851 C   0  0  0  0  0  0  0  0  0  0  0  0
    5.1361   29.3260  201.1452 C   0  0  0  0  0  0  0  0  0  0  0  0
    3.8476   29.1781  200.8542 N   0  0  0  0  0  0  0  0  0  0  0  0
    3.3727   28.0825  200.2296 C   0  0  0  0  0  0  0  0  0  0  0  0
    4.2479   27.1173  199.8973 N   0  0  0  0  0  0  0  0  0  0  0  0
    5.5646   27.1751  200.1479 C   0  0  0  0  0  0  0  0  0  0  0  0
    6.4540   26.1458  199.7855 N   0  0  0  0  0  0  0  0  0  0  0  0
    6.1032   25.0397  198.9747 C   0  0  0  0  0  0  0  0  0  0  0  0
    5.4081   25.2072  197.7946 C   0  0  0  0  0  0  0  0  0  0  0  0
    5.0462   24.1664  196.9638 C   0  0  0  0  0  0  0  0  0  0  0  0
    4.1685   24.4019  195.4684 Cl  0  0  0  0  0  0  0  0  0  0  0  0
    5.3830   22.8568  197.3022 C   0  0  0  0  0  0  0  0  0  0  0  0
    5.0360   21.8230  196.4963 F   0  0  0  0  0  0  0  0  0  0  0  0
    6.0758   22.6780  198.4773 C   0  0  0  0  0  0  0  0  0  0  0  0
    6.4354   23.7298  199.3047 C   0  0  0  0  0  0  0  0  0  0  0  0
 20 19  2  0
 20 21  1  0
 18 13  1  0
 18 17  2  0
 18 19  1  0
 17 16  1  0
 17 22  1  0
 22 21  2  0
 22 23  1  0
 15 14  1  0
 30 28  1  0
 30 31  2  0
 31 24  1  0
 25 24  2  0
 25 26  1  0
 13 12  2  0
 16 11  2  0
  8  7  1  0
  8  9  1  0
  9 10  1  0
  2  1  1  0
  2  3  1  0
  4  3  1  0
  4  5  1  0
  7  6  1  0
  1  6  1  0
  5  6  1  0
 28 26  2  0
 28 29  1  0
 26 27  1  0
 24 23  1  0
 12 11  1  0
 12 14  1  0
 11 10  1  0
M  CHG  1   6   1
M  END
$$$$
