
     RDKit          3D

 31 34  0  0  0  0  0  0  0  0999 V2000
   12.7279   29.2586  204.9056 C   0  0  0  0  0  0  0  0  0  0  0  0
   14.1120   28.7029  205.1505 C   0  0  0  0  0  0  0  0  0  0  0  0
   14.9869   29.0174  204.0936 O   0  0  0  0  0  0  0  0  0  0  0  0
   14.9947   30.4129  203.8846 C   0  0  0  0  0  0  0  0  0  0  0  0
   13.6174   30.9326  203.5352 C   0  0  0  0  0  0  0  0  0  0  0  0
   12.7052   29.8206  203.5737 N   0  0  0  0  0  4  0  0  0  0  0  0
   11.3685   30.1788  203.1544 C   0  0  0  0  0  0  0  0  0  0  0  0
   11.0462   29.6373  201.7769 C   0  0  0  0  0  0  0  0  0  0  0  0
    9.6753   29.0125  201.8407 C   0  0  0  0  0  0  0  0  0  0  0  0
    8.6447   29.9264  201.6514 O   0  0  0  0  0  0  0  0  0  0  0  0
    7.3549   29.6701  201.2590 C   0  0  0  0  0  0  0  0  0  0  0  0
    6.4283   30.6957  201.4220 C   0  0  0  0  0  0  0  0  0  0  0  0
    5.1065   30.5315  201.0568 C   0  0  0  0  0  0  0  0  0  0  0  0
    6.8084   31.9135  201.9579 O   0  0  0  0  0  0  0  0  0  0  0  0
    5.8239   32.8198  202.3992 C   0  0  0  0  0  0  0  0  0  0  0  0
    6.9396   28.4720  200.7224 C   0  0  0  0  0  0  0  0  0  0  0  0
    5.6250   28.2805  200.3494 C   0  0  0  0  0  0  0  0  0  0  0  0
    4.6952   29.3218  200.5177 C   0  0  0  0  0  0  0  0  0  0  0  0
    3.4331   29.1099  200.1584 N   0  0  0  0  0  0  0  0  0  0  0  0
    3.0201   27.9356  199.6422 C   0  0  0  0  0  0  0  0  0  0  0  0
    3.9306   26.9576  199.4928 N   0  0  0  0  0  0  0  0  0  0  0  0
    5.2250   27.0759  199.8252 C   0  0  0  0  0  0  0  0  0  0  0  0
    6.1528   26.0308  199.6549 N   0  0  0  0  0  0  0  0  0  0  0  0
    5.9836   24.9562  198.7491 C   0  0  0  0  0  0  0  0  0  0  0  0
    4.7443   24.6450  198.2286 C   0  0  0  0  0  0  0  0  0  0  0  0
    4.5236   23.6137  197.3386 C   0  0  0  0  0  0  0  0  0  0  0  0
    2.9433   23.2392  196.6870 Cl  0  0  0  0  0  0  0  0  0  0  0  0
    5.5879   22.8179  196.9183 C   0  0  0  0  0  0  0  0  0  0  0  0
    5.3883   21.8013  196.0433 F   0  0  0  0  0  0  0  0  0  0  0  0
    6.8285   23.1189  197.4314 C   0  0  0  0  0  0  0  0  0  0  0  0
    7.0402   24.1572  198.3242 C   0  0  0  0  0  0  0  0  0  0  0  0
 20 19  2  0
 20 21  1  0
 18 13  1  0
 18 17  2  0
 18 19  1  0
 17 16  1  0
 17 22  1  0
 22 21  2  0
 22 23  1  0
 15 14  1  0
 30 28  1  0
 30 31  2  0
 31 24  1  0
 25 24  2  0
 25 26  1  0
 13 12  2  0
 16 11  2  0
  8  7  1  0
  8  9  1  0
  9 10  1  0
  2  1  1  0
  2  3  1  0
  4  3  1  0
  4  5  1  0
  7  6  1  0
  1  6  1  0
  5  6  1  0
 28 26  2  0
 28 29  1  0
 26 27  1  0
 24 23  1  0
 12 11  1  0
 12 14  1  0
 11 10  1  0
M  CHG  1   6   1
M  END
$$$$
