
     RDKit          3D

 31 34  0  0  0  0  0  0  0  0999 V2000
  -18.3235   10.4990  161.7941 C   0  0  0  0  0  0  0  0  0  0  0  0
  -19.0772   11.7257  162.2541 C   0  0  0  0  0  0  0  0  0  0  0  0
  -18.2423   12.8584  162.2914 O   0  0  0  0  0  0  0  0  0  0  0  0
  -17.6338   13.0398  161.0313 C   0  0  0  0  0  0  0  0  0  0  0  0
  -16.7967   11.8423  160.6382 C   0  0  0  0  0  0  0  0  0  0  0  0
  -16.9271   10.8549  161.6765 N   0  0  0  0  0  4  0  0  0  0  0  0
  -16.0851    9.6997  161.4589 C   0  0  0  0  0  0  0  0  0  0  0  0
  -16.8441    8.5653  160.8018 C   0  0  0  0  0  0  0  0  0  0  0  0
  -15.9175    7.3779  160.7280 C   0  0  0  0  0  0  0  0  0  0  0  0
  -16.4849    6.2755  160.0986 O   0  0  0  0  0  0  0  0  0  0  0  0
  -15.9137    5.0475  159.8767 C   0  0  0  0  0  0  0  0  0  0  0  0
  -16.7269    3.9312  160.0484 C   0  0  0  0  0  0  0  0  0  0  0  0
  -16.2412    2.6538  159.8486 C   0  0  0  0  0  0  0  0  0  0  0  0
  -18.0504    4.0719  160.4266 O   0  0  0  0  0  0  0  0  0  0  0  0
  -18.8507    2.9262  160.6065 C   0  0  0  0  0  0  0  0  0  0  0  0
  -14.6016    4.8682  159.4999 C   0  0  0  0  0  0  0  0  0  0  0  0
  -14.0901    3.6032  159.2941 C   0  0  0  0  0  0  0  0  0  0  0  0
  -14.9184    2.4807  159.4700 C   0  0  0  0  0  0  0  0  0  0  0  0
  -14.4001    1.2726  159.2737 N   0  0  0  0  0  0  0  0  0  0  0  0
  -13.1138    1.0917  158.9147 C   0  0  0  0  0  0  0  0  0  0  0  0
  -12.3449    2.1830  158.7540 N   0  0  0  0  0  0  0  0  0  0  0  0
  -12.7763    3.4413  158.9285 C   0  0  0  0  0  0  0  0  0  0  0  0
  -11.9437    4.5625  158.7512 N   0  0  0  0  0  0  0  0  0  0  0  0
  -10.6578    4.5136  158.1613 C   0  0  0  0  0  0  0  0  0  0  0  0
  -10.3361    3.5571  157.2204 C   0  0  0  0  0  0  0  0  0  0  0  0
   -9.1019    3.4672  156.6097 C   0  0  0  0  0  0  0  0  0  0  0  0
   -8.7165    2.2483  155.4148 Cl  0  0  0  0  0  0  0  0  0  0  0  0
   -8.0964    4.3757  156.9362 C   0  0  0  0  0  0  0  0  0  0  0  0
   -6.8786    4.3019  156.3445 F   0  0  0  0  0  0  0  0  0  0  0  0
   -8.4061    5.3337  157.8739 C   0  0  0  0  0  0  0  0  0  0  0  0
   -9.6489    5.4163  158.4811 C   0  0  0  0  0  0  0  0  0  0  0  0
 20 19  2  0
 20 21  1  0
 18 13  1  0
 18 17  2  0
 18 19  1  0
 17 16  1  0
 17 22  1  0
 22 21  2  0
 22 23  1  0
 15 14  1  0
 30 28  1  0
 30 31  2  0
 31 24  1  0
 25 24  2  0
 25 26  1  0
 13 12  2  0
 16 11  2  0
  8  7  1  0
  8  9  1  0
  9 10  1  0
  2  1  1  0
  2  3  1  0
  4  3  1  0
  4  5  1  0
  7  6  1  0
  1  6  1  0
  5  6  1  0
 28 26  2  0
 28 29  1  0
 26 27  1  0
 24 23  1  0
 12 11  1  0
 12 14  1  0
 11 10  1  0
M  CHG  1   6   1
M  END
$$$$
