
     RDKit          3D

 31 34  0  0  0  0  0  0  0  0999 V2000
   12.9561   29.4776  204.9041 C   0  0  0  0  0  0  0  0  0  0  0  0
   13.8675   28.3791  205.4014 C   0  0  0  0  0  0  0  0  0  0  0  0
   14.2839   27.5410  204.3499 O   0  0  0  0  0  0  0  0  0  0  0  0
   14.8791   28.3172  203.3330 C   0  0  0  0  0  0  0  0  0  0  0  0
   13.9143   29.3402  202.7747 C   0  0  0  0  0  0  0  0  0  0  0  0
   12.6811   29.2269  203.5070 N   0  0  0  0  0  4  0  0  0  0  0  0
   11.6425   30.0905  202.9909 C   0  0  0  0  0  0  0  0  0  0  0  0
   11.2291   29.6976  201.5876 C   0  0  0  0  0  0  0  0  0  0  0  0
    9.9035   28.9853  201.6842 C   0  0  0  0  0  0  0  0  0  0  0  0
    8.8162   29.8505  201.7346 O   0  0  0  0  0  0  0  0  0  0  0  0
    7.5194   29.5939  201.3664 C   0  0  0  0  0  0  0  0  0  0  0  0
    6.5755   30.5774  201.6469 C   0  0  0  0  0  0  0  0  0  0  0  0
    5.2456   30.4093  201.3146 C   0  0  0  0  0  0  0  0  0  0  0  0
    6.9461   31.7558  202.2703 O   0  0  0  0  0  0  0  0  0  0  0  0
    5.9833   32.7599  202.4944 C   0  0  0  0  0  0  0  0  0  0  0  0
    7.1132   28.4342  200.7452 C   0  0  0  0  0  0  0  0  0  0  0  0
    5.7907   28.2397  200.4026 C   0  0  0  0  0  0  0  0  0  0  0  0
    4.8435   29.2384  200.6898 C   0  0  0  0  0  0  0  0  0  0  0  0
    3.5745   29.0239  200.3574 N   0  0  0  0  0  0  0  0  0  0  0  0
    3.1706   27.8863  199.7584 C   0  0  0  0  0  0  0  0  0  0  0  0
    4.0979   26.9486  199.4960 N   0  0  0  0  0  0  0  0  0  0  0  0
    5.4004   27.0729  199.7926 C   0  0  0  0  0  0  0  0  0  0  0  0
    6.3456   26.0706  199.5031 N   0  0  0  0  0  0  0  0  0  0  0  0
    6.0899   24.9505  198.6762 C   0  0  0  0  0  0  0  0  0  0  0  0
    5.3748   25.0736  197.5026 C   0  0  0  0  0  0  0  0  0  0  0  0
    5.1021   24.0178  196.6568 C   0  0  0  0  0  0  0  0  0  0  0  0
    4.1968   24.1972  195.1702 Cl  0  0  0  0  0  0  0  0  0  0  0  0
    5.5571   22.7386  196.9720 C   0  0  0  0  0  0  0  0  0  0  0  0
    5.2988   21.6907  196.1511 F   0  0  0  0  0  0  0  0  0  0  0  0
    6.2710   22.6041  198.1404 C   0  0  0  0  0  0  0  0  0  0  0  0
    6.5404   23.6707  198.9830 C   0  0  0  0  0  0  0  0  0  0  0  0
 20 19  2  0
 20 21  1  0
 18 13  1  0
 18 17  2  0
 18 19  1  0
 17 16  1  0
 17 22  1  0
 22 21  2  0
 22 23  1  0
 15 14  1  0
 30 28  1  0
 30 31  2  0
 31 24  1  0
 25 24  2  0
 25 26  1  0
 13 12  2  0
 16 11  2  0
  8  7  1  0
  8  9  1  0
  9 10  1  0
  2  1  1  0
  2  3  1  0
  4  3  1  0
  4  5  1  0
  7  6  1  0
  1  6  1  0
  5  6  1  0
 28 26  2  0
 28 29  1  0
 26 27  1  0
 24 23  1  0
 12 11  1  0
 12 14  1  0
 11 10  1  0
M  CHG  1   6   1
M  END
$$$$
