
     RDKit          3D

 31 34  0  0  0  0  0  0  0  0999 V2000
   14.5282   28.1940  202.0886 C   0  0  0  0  0  0  0  0  0  0  0  0
   15.6697   28.3782  203.0622 C   0  0  0  0  0  0  0  0  0  0  0  0
   15.2300   28.9612  204.2656 O   0  0  0  0  0  0  0  0  0  0  0  0
   14.1773   28.1931  204.8069 C   0  0  0  0  0  0  0  0  0  0  0  0
   13.0013   28.1109  203.8586 C   0  0  0  0  0  0  0  0  0  0  0  0
   13.3552   28.8191  202.6573 N   0  0  0  0  0  4  0  0  0  0  0  0
   12.2642   28.8964  201.7113 C   0  0  0  0  0  0  0  0  0  0  0  0
   10.9566   29.2530  202.3877 C   0  0  0  0  0  0  0  0  0  0  0  0
    9.9277   29.4711  201.3070 C   0  0  0  0  0  0  0  0  0  0  0  0
    8.7756   30.1016  201.7633 O   0  0  0  0  0  0  0  0  0  0  0  0
    7.4791   29.8636  201.3814 C   0  0  0  0  0  0  0  0  0  0  0  0
    6.5561   30.8804  201.6075 C   0  0  0  0  0  0  0  0  0  0  0  0
    5.2282   30.7330  201.2575 C   0  0  0  0  0  0  0  0  0  0  0  0
    6.9459   32.0720  202.1928 O   0  0  0  0  0  0  0  0  0  0  0  0
    5.9936   33.0876  202.4098 C   0  0  0  0  0  0  0  0  0  0  0  0
    7.0541   28.6916  200.7969 C   0  0  0  0  0  0  0  0  0  0  0  0
    5.7332   28.5174  200.4378 C   0  0  0  0  0  0  0  0  0  0  0  0
    4.8071   29.5496  200.6699 C   0  0  0  0  0  0  0  0  0  0  0  0
    3.5390   29.3543  200.3227 N   0  0  0  0  0  0  0  0  0  0  0  0
    3.1165   28.2052  199.7596 C   0  0  0  0  0  0  0  0  0  0  0  0
    4.0237   27.2354  199.5496 N   0  0  0  0  0  0  0  0  0  0  0  0
    5.3237   27.3383  199.8650 C   0  0  0  0  0  0  0  0  0  0  0  0
    6.2478   26.3024  199.6307 N   0  0  0  0  0  0  0  0  0  0  0  0
    5.9418   25.1033  198.9434 C   0  0  0  0  0  0  0  0  0  0  0  0
    5.1721   25.1093  197.7982 C   0  0  0  0  0  0  0  0  0  0  0  0
    4.8488   23.9724  197.0860 C   0  0  0  0  0  0  0  0  0  0  0  0
    3.8745   24.0032  195.6328 Cl  0  0  0  0  0  0  0  0  0  0  0  0
    5.3063   22.7282  197.5167 C   0  0  0  0  0  0  0  0  0  0  0  0
    4.9986   21.6015  196.8277 F   0  0  0  0  0  0  0  0  0  0  0  0
    6.0743   22.7103  198.6580 C   0  0  0  0  0  0  0  0  0  0  0  0
    6.3943   23.8577  199.3660 C   0  0  0  0  0  0  0  0  0  0  0  0
 20 19  2  0
 20 21  1  0
 18 13  1  0
 18 17  2  0
 18 19  1  0
 17 16  1  0
 17 22  1  0
 22 21  2  0
 22 23  1  0
 15 14  1  0
 30 28  1  0
 30 31  2  0
 31 24  1  0
 25 24  2  0
 25 26  1  0
 13 12  2  0
 16 11  2  0
  8  7  1  0
  8  9  1  0
  9 10  1  0
  2  1  1  0
  2  3  1  0
  4  3  1  0
  4  5  1  0
  7  6  1  0
  1  6  1  0
  5  6  1  0
 28 26  2  0
 28 29  1  0
 26 27  1  0
 24 23  1  0
 12 11  1  0
 12 14  1  0
 11 10  1  0
M  CHG  1   6   1
M  END
$$$$
