
     RDKit          3D

 31 34  0  0  0  0  0  0  0  0999 V2000
   13.9574   30.0371  203.8229 C   0  0  0  0  0  0  0  0  0  0  0  0
   15.3277   29.4258  204.0062 C   0  0  0  0  0  0  0  0  0  0  0  0
   16.0270   29.3561  202.7865 O   0  0  0  0  0  0  0  0  0  0  0  0
   16.0818   30.6375  202.1983 C   0  0  0  0  0  0  0  0  0  0  0  0
   14.6983   31.1858  201.9248 C   0  0  0  0  0  0  0  0  0  0  0  0
   13.7418   30.2247  202.4057 N   0  0  0  0  0  4  0  0  0  0  0  0
   12.3767   30.5953  202.1049 C   0  0  0  0  0  0  0  0  0  0  0  0
   11.3843   29.6114  202.6892 C   0  0  0  0  0  0  0  0  0  0  0  0
   10.4069   29.2470  201.6001 C   0  0  0  0  0  0  0  0  0  0  0  0
    9.3420   30.1350  201.4968 O   0  0  0  0  0  0  0  0  0  0  0  0
    8.0316   29.8467  201.2087 C   0  0  0  0  0  0  0  0  0  0  0  0
    7.0841   30.8108  201.5399 C   0  0  0  0  0  0  0  0  0  0  0  0
    5.7407   30.6106  201.2891 C   0  0  0  0  0  0  0  0  0  0  0  0
    7.4645   32.0016  202.1330 O   0  0  0  0  0  0  0  0  0  0  0  0
    6.5026   33.0050  202.3640 C   0  0  0  0  0  0  0  0  0  0  0  0
    7.6154   28.6738  200.6197 C   0  0  0  0  0  0  0  0  0  0  0  0
    6.2795   28.4474  200.3584 C   0  0  0  0  0  0  0  0  0  0  0  0
    5.3287   29.4266  200.6964 C   0  0  0  0  0  0  0  0  0  0  0  0
    4.0473   29.1813  200.4420 N   0  0  0  0  0  0  0  0  0  0  0  0
    3.6342   28.0308  199.8749 C   0  0  0  0  0  0  0  0  0  0  0  0
    4.5652   27.1123  199.5626 N   0  0  0  0  0  0  0  0  0  0  0  0
    5.8799   27.2678  199.7796 C   0  0  0  0  0  0  0  0  0  0  0  0
    6.8287   26.2849  199.4395 N   0  0  0  0  0  0  0  0  0  0  0  0
    6.5543   25.1636  198.6202 C   0  0  0  0  0  0  0  0  0  0  0  0
    5.7142   25.2603  197.5299 C   0  0  0  0  0  0  0  0  0  0  0  0
    5.4171   24.2025  196.6950 C   0  0  0  0  0  0  0  0  0  0  0  0
    4.3522   24.3484  195.3142 Cl  0  0  0  0  0  0  0  0  0  0  0  0
    5.9773   22.9488  196.9344 C   0  0  0  0  0  0  0  0  0  0  0  0
    5.6966   21.8993  196.1229 F   0  0  0  0  0  0  0  0  0  0  0  0
    6.8162   22.8407  198.0194 C   0  0  0  0  0  0  0  0  0  0  0  0
    7.1090   23.9092  198.8517 C   0  0  0  0  0  0  0  0  0  0  0  0
 20 19  2  0
 20 21  1  0
 18 13  1  0
 18 17  2  0
 18 19  1  0
 17 16  1  0
 17 22  1  0
 22 21  2  0
 22 23  1  0
 15 14  1  0
 30 28  1  0
 30 31  2  0
 31 24  1  0
 25 24  2  0
 25 26  1  0
 13 12  2  0
 16 11  2  0
  8  7  1  0
  8  9  1  0
  9 10  1  0
  2  1  1  0
  2  3  1  0
  4  3  1  0
  4  5  1  0
  7  6  1  0
  1  6  1  0
  5  6  1  0
 28 26  2  0
 28 29  1  0
 26 27  1  0
 24 23  1  0
 12 11  1  0
 12 14  1  0
 11 10  1  0
M  CHG  1   6   1
M  END
$$$$
