
     RDKit          3D

 31 34  0  0  0  0  0  0  0  0999 V2000
   13.4559   29.5754  204.2580 C   0  0  0  0  0  0  0  0  0  0  0  0
   13.9311   28.8343  205.4867 C   0  0  0  0  0  0  0  0  0  0  0  0
   14.2531   27.4970  205.1881 O   0  0  0  0  0  0  0  0  0  0  0  0
   15.1945   27.4599  204.1376 C   0  0  0  0  0  0  0  0  0  0  0  0
   14.6571   28.1131  202.8831 C   0  0  0  0  0  0  0  0  0  0  0  0
   13.3433   28.6192  203.1795 N   0  0  0  0  0  4  0  0  0  0  0  0
   12.6844   29.1783  202.0200 C   0  0  0  0  0  0  0  0  0  0  0  0
   11.2657   29.6083  202.3312 C   0  0  0  0  0  0  0  0  0  0  0  0
   10.4334   29.3648  201.0975 C   0  0  0  0  0  0  0  0  0  0  0  0
    9.3067   30.1764  201.0248 O   0  0  0  0  0  0  0  0  0  0  0  0
    7.9935   29.7868  200.9420 C   0  0  0  0  0  0  0  0  0  0  0  0
    7.0431   30.6457  201.4860 C   0  0  0  0  0  0  0  0  0  0  0  0
    5.6969   30.3390  201.4509 C   0  0  0  0  0  0  0  0  0  0  0  0
    7.4235   31.8358  202.0805 O   0  0  0  0  0  0  0  0  0  0  0  0
    6.5685   32.9538  202.0144 C   0  0  0  0  0  0  0  0  0  0  0  0
    7.5771   28.6111  200.3587 C   0  0  0  0  0  0  0  0  0  0  0  0
    6.2386   28.2794  200.3103 C   0  0  0  0  0  0  0  0  0  0  0  0
    5.2849   29.1527  200.8625 C   0  0  0  0  0  0  0  0  0  0  0  0
    4.0025   28.8068  200.8107 N   0  0  0  0  0  0  0  0  0  0  0  0
    3.5913   27.6525  200.2499 C   0  0  0  0  0  0  0  0  0  0  0  0
    4.5250   26.8366  199.7300 N   0  0  0  0  0  0  0  0  0  0  0  0
    5.8409   27.0980  199.7339 C   0  0  0  0  0  0  0  0  0  0  0  0
    6.7924   26.2209  199.1798 N   0  0  0  0  0  0  0  0  0  0  0  0
    6.4678   25.0439  198.4635 C   0  0  0  0  0  0  0  0  0  0  0  0
    5.6615   25.0844  197.3446 C   0  0  0  0  0  0  0  0  0  0  0  0
    5.3187   23.9703  196.6060 C   0  0  0  0  0  0  0  0  0  0  0  0
    4.2979   24.0451  195.1867 Cl  0  0  0  0  0  0  0  0  0  0  0  0
    5.7933   22.7144  196.9805 C   0  0  0  0  0  0  0  0  0  0  0  0
    5.4668   21.6098  196.2650 F   0  0  0  0  0  0  0  0  0  0  0  0
    6.5979   22.6620  198.0953 C   0  0  0  0  0  0  0  0  0  0  0  0
    6.9373   23.7868  198.8301 C   0  0  0  0  0  0  0  0  0  0  0  0
 20 19  2  0
 20 21  1  0
 18 13  1  0
 18 17  2  0
 18 19  1  0
 17 16  1  0
 17 22  1  0
 22 21  2  0
 22 23  1  0
 15 14  1  0
 30 28  1  0
 30 31  2  0
 31 24  1  0
 25 24  2  0
 25 26  1  0
 13 12  2  0
 16 11  2  0
  8  7  1  0
  8  9  1  0
  9 10  1  0
  2  1  1  0
  2  3  1  0
  4  3  1  0
  4  5  1  0
  7  6  1  0
  1  6  1  0
  5  6  1  0
 28 26  2  0
 28 29  1  0
 26 27  1  0
 24 23  1  0
 12 11  1  0
 12 14  1  0
 11 10  1  0
M  CHG  1   6   1
M  END
$$$$
