
     RDKit          3D

 31 34  0  0  0  0  0  0  0  0999 V2000
   14.3645   30.7809  202.1194 C   0  0  0  0  0  0  0  0  0  0  0  0
   15.7023   30.5406  202.7807 C   0  0  0  0  0  0  0  0  0  0  0  0
   15.5715   29.7359  203.9282 O   0  0  0  0  0  0  0  0  0  0  0  0
   14.9123   28.5346  203.5914 C   0  0  0  0  0  0  0  0  0  0  0  0
   13.5313   28.7941  203.0302 C   0  0  0  0  0  0  0  0  0  0  0  0
   13.3411   30.2190  202.9722 N   0  0  0  0  0  4  0  0  0  0  0  0
   12.0101   30.5889  202.5451 C   0  0  0  0  0  0  0  0  0  0  0  0
   11.1390   29.3740  202.3009 C   0  0  0  0  0  0  0  0  0  0  0  0
   10.0371   29.7840  201.3567 C   0  0  0  0  0  0  0  0  0  0  0  0
    8.8201   30.0022  201.9928 O   0  0  0  0  0  0  0  0  0  0  0  0
    7.5611   29.7467  201.5101 C   0  0  0  0  0  0  0  0  0  0  0  0
    6.6131   30.7560  201.6499 C   0  0  0  0  0  0  0  0  0  0  0  0
    5.3193   30.5913  201.1954 C   0  0  0  0  0  0  0  0  0  0  0  0
    6.9429   31.9575  202.2517 O   0  0  0  0  0  0  0  0  0  0  0  0
    5.9640   32.9617  202.3884 C   0  0  0  0  0  0  0  0  0  0  0  0
    7.1960   28.5646  200.9059 C   0  0  0  0  0  0  0  0  0  0  0  0
    5.9102   28.3729  200.4432 C   0  0  0  0  0  0  0  0  0  0  0  0
    4.9585   29.3977  200.5887 C   0  0  0  0  0  0  0  0  0  0  0  0
    3.7245   29.1857  200.1423 N   0  0  0  0  0  0  0  0  0  0  0  0
    3.3600   28.0266  199.5594 C   0  0  0  0  0  0  0  0  0  0  0  0
    4.2906   27.0642  199.4339 N   0  0  0  0  0  0  0  0  0  0  0  0
    5.5597   27.1839  199.8522 C   0  0  0  0  0  0  0  0  0  0  0  0
    6.5096   26.1555  199.7045 N   0  0  0  0  0  0  0  0  0  0  0  0
    6.2957   24.9768  198.9503 C   0  0  0  0  0  0  0  0  0  0  0  0
    5.0946   24.7407  198.3135 C   0  0  0  0  0  0  0  0  0  0  0  0
    4.8344   23.6134  197.5613 C   0  0  0  0  0  0  0  0  0  0  0  0
    3.3048   23.3362  196.7579 Cl  0  0  0  0  0  0  0  0  0  0  0  0
    5.8152   22.6340  197.4137 C   0  0  0  0  0  0  0  0  0  0  0  0
    5.5760   21.5210  196.6771 F   0  0  0  0  0  0  0  0  0  0  0  0
    7.0167   22.8588  198.0450 C   0  0  0  0  0  0  0  0  0  0  0  0
    7.2688   23.9946  198.7976 C   0  0  0  0  0  0  0  0  0  0  0  0
 20 19  2  0
 20 21  1  0
 18 13  1  0
 18 17  2  0
 18 19  1  0
 17 16  1  0
 17 22  1  0
 22 21  2  0
 22 23  1  0
 15 14  1  0
 30 28  1  0
 30 31  2  0
 31 24  1  0
 25 24  2  0
 25 26  1  0
 13 12  2  0
 16 11  2  0
  8  7  1  0
  8  9  1  0
  9 10  1  0
  2  1  1  0
  2  3  1  0
  4  3  1  0
  4  5  1  0
  7  6  1  0
  1  6  1  0
  5  6  1  0
 28 26  2  0
 28 29  1  0
 26 27  1  0
 24 23  1  0
 12 11  1  0
 12 14  1  0
 11 10  1  0
M  CHG  1   6   1
M  END
$$$$
