
     RDKit          3D

 31 34  0  0  0  0  0  0  0  0999 V2000
   13.3232   27.6527  202.5739 C   0  0  0  0  0  0  0  0  0  0  0  0
   14.6108   27.1457  201.9659 C   0  0  0  0  0  0  0  0  0  0  0  0
   15.3376   28.1869  201.3583 O   0  0  0  0  0  0  0  0  0  0  0  0
   15.5527   29.2222  202.2926 C   0  0  0  0  0  0  0  0  0  0  0  0
   14.2480   29.7884  202.8087 C   0  0  0  0  0  0  0  0  0  0  0  0
   13.1759   29.0428  202.2047 N   0  0  0  0  0  4  0  0  0  0  0  0
   11.8707   29.5635  202.5459 C   0  0  0  0  0  0  0  0  0  0  0  0
   10.7572   28.7198  201.9605 C   0  0  0  0  0  0  0  0  0  0  0  0
    9.4473   29.3530  202.3572 C   0  0  0  0  0  0  0  0  0  0  0  0
    8.7443   29.8833  201.2811 O   0  0  0  0  0  0  0  0  0  0  0  0
    7.4337   29.6602  200.9408 C   0  0  0  0  0  0  0  0  0  0  0  0
    6.5206   30.6648  201.2471 C   0  0  0  0  0  0  0  0  0  0  0  0
    5.1798   30.5309  200.9439 C   0  0  0  0  0  0  0  0  0  0  0  0
    6.9336   31.8305  201.8676 O   0  0  0  0  0  0  0  0  0  0  0  0
    6.0046   32.8638  202.1017 C   0  0  0  0  0  0  0  0  0  0  0  0
    6.9855   28.5140  200.3233 C   0  0  0  0  0  0  0  0  0  0  0  0
    5.6514   28.3536  200.0095 C   0  0  0  0  0  0  0  0  0  0  0  0
    4.7354   29.3734  200.3226 C   0  0  0  0  0  0  0  0  0  0  0  0
    3.4545   29.1916  200.0176 N   0  0  0  0  0  0  0  0  0  0  0  0
    3.0098   28.0674  199.4224 C   0  0  0  0  0  0  0  0  0  0  0  0
    3.9077   27.1089  199.1348 N   0  0  0  0  0  0  0  0  0  0  0  0
    5.2192   27.1999  199.4028 C   0  0  0  0  0  0  0  0  0  0  0  0
    6.1329   26.1765  199.0874 N   0  0  0  0  0  0  0  0  0  0  0  0
    5.8482   25.0949  198.2197 C   0  0  0  0  0  0  0  0  0  0  0  0
    5.4058   23.8820  198.7065 C   0  0  0  0  0  0  0  0  0  0  0  0
    5.1079   22.7976  197.9066 C   0  0  0  0  0  0  0  0  0  0  0  0
    4.5435   21.2692  198.5450 Cl  0  0  0  0  0  0  0  0  0  0  0  0
    5.2503   22.8936  196.5234 C   0  0  0  0  0  0  0  0  0  0  0  0
    4.9607   21.8378  195.7232 F   0  0  0  0  0  0  0  0  0  0  0  0
    5.6913   24.0985  196.0269 C   0  0  0  0  0  0  0  0  0  0  0  0
    5.9873   25.1821  196.8383 C   0  0  0  0  0  0  0  0  0  0  0  0
 20 19  2  0
 20 21  1  0
 18 13  1  0
 18 17  2  0
 18 19  1  0
 17 16  1  0
 17 22  1  0
 22 21  2  0
 22 23  1  0
 15 14  1  0
 30 28  1  0
 30 31  2  0
 31 24  1  0
 25 24  2  0
 25 26  1  0
 13 12  2  0
 16 11  2  0
  8  7  1  0
  8  9  1  0
  9 10  1  0
  2  1  1  0
  2  3  1  0
  4  3  1  0
  4  5  1  0
  7  6  1  0
  1  6  1  0
  5  6  1  0
 28 26  2  0
 28 29  1  0
 26 27  1  0
 24 23  1  0
 12 11  1  0
 12 14  1  0
 11 10  1  0
M  CHG  1   6   1
M  END
$$$$
