
     RDKit          3D

 31 34  0  0  0  0  0  0  0  0999 V2000
   14.5244   29.8854  202.4710 C   0  0  0  0  0  0  0  0  0  0  0  0
   15.6983   29.1468  203.0719 C   0  0  0  0  0  0  0  0  0  0  0  0
   15.3946   27.7899  203.2909 O   0  0  0  0  0  0  0  0  0  0  0  0
   14.9473   27.2046  202.0874 C   0  0  0  0  0  0  0  0  0  0  0  0
   13.7073   27.8923  201.5594 C   0  0  0  0  0  0  0  0  0  0  0  0
   13.3967   28.9809  202.4473 N   0  0  0  0  0  4  0  0  0  0  0  0
   12.1645   29.6528  202.0991 C   0  0  0  0  0  0  0  0  0  0  0  0
   10.9619   28.7477  202.2698 C   0  0  0  0  0  0  0  0  0  0  0  0
    9.8027   29.6060  202.7096 C   0  0  0  0  0  0  0  0  0  0  0  0
    9.0153   30.0506  201.6534 O   0  0  0  0  0  0  0  0  0  0  0  0
    7.7138   29.7157  201.3756 C   0  0  0  0  0  0  0  0  0  0  0  0
    6.7350   30.6448  201.7159 C   0  0  0  0  0  0  0  0  0  0  0  0
    5.3977   30.3967  201.4759 C   0  0  0  0  0  0  0  0  0  0  0  0
    7.0772   31.8478  202.3077 O   0  0  0  0  0  0  0  0  0  0  0  0
    6.0830   32.8186  202.5414 C   0  0  0  0  0  0  0  0  0  0  0  0
    7.3352   28.5294  200.7883 C   0  0  0  0  0  0  0  0  0  0  0  0
    6.0062   28.2553  200.5376 C   0  0  0  0  0  0  0  0  0  0  0  0
    5.0236   29.1993  200.8847 C   0  0  0  0  0  0  0  0  0  0  0  0
    3.7498   28.9084  200.6406 N   0  0  0  0  0  0  0  0  0  0  0  0
    3.3737   27.7444  200.0752 C   0  0  0  0  0  0  0  0  0  0  0  0
    4.3345   26.8603  199.7539 N   0  0  0  0  0  0  0  0  0  0  0  0
    5.6446   27.0628  199.9604 C   0  0  0  0  0  0  0  0  0  0  0  0
    6.6252   26.1151  199.6111 N   0  0  0  0  0  0  0  0  0  0  0  0
    6.3801   24.9749  198.8088 C   0  0  0  0  0  0  0  0  0  0  0  0
    5.7047   25.0733  197.6096 C   0  0  0  0  0  0  0  0  0  0  0  0
    5.4441   23.9972  196.7861 C   0  0  0  0  0  0  0  0  0  0  0  0
    4.5895   24.1454  195.2663 Cl  0  0  0  0  0  0  0  0  0  0  0  0
    5.8704   22.7217  197.1523 C   0  0  0  0  0  0  0  0  0  0  0  0
    5.6234   21.6538  196.3539 F   0  0  0  0  0  0  0  0  0  0  0  0
    6.5445   22.6116  198.3466 C   0  0  0  0  0  0  0  0  0  0  0  0
    6.8021   23.6986  199.1666 C   0  0  0  0  0  0  0  0  0  0  0  0
 20 19  2  0
 20 21  1  0
 18 13  1  0
 18 17  2  0
 18 19  1  0
 17 16  1  0
 17 22  1  0
 22 21  2  0
 22 23  1  0
 15 14  1  0
 30 28  1  0
 30 31  2  0
 31 24  1  0
 25 24  2  0
 25 26  1  0
 13 12  2  0
 16 11  2  0
  8  7  1  0
  8  9  1  0
  9 10  1  0
  2  1  1  0
  2  3  1  0
  4  3  1  0
  4  5  1  0
  7  6  1  0
  1  6  1  0
  5  6  1  0
 28 26  2  0
 28 29  1  0
 26 27  1  0
 24 23  1  0
 12 11  1  0
 12 14  1  0
 11 10  1  0
M  CHG  1   6   1
M  END
$$$$
