
     RDKit          3D

 31 34  0  0  0  0  0  0  0  0999 V2000
   13.3381   31.0370  204.0138 C   0  0  0  0  0  0  0  0  0  0  0  0
   14.7369   30.6985  204.4756 C   0  0  0  0  0  0  0  0  0  0  0  0
   15.5752   30.3846  203.3892 O   0  0  0  0  0  0  0  0  0  0  0  0
   15.5562   31.4422  202.4554 C   0  0  0  0  0  0  0  0  0  0  0  0
   14.1615   31.6937  201.9253 C   0  0  0  0  0  0  0  0  0  0  0  0
   13.2675   30.7848  202.5919 N   0  0  0  0  0  4  0  0  0  0  0  0
   11.9137   30.8625  202.0897 C   0  0  0  0  0  0  0  0  0  0  0  0
   11.0021   29.8624  202.7706 C   0  0  0  0  0  0  0  0  0  0  0  0
    9.9656   29.4299  201.7643 C   0  0  0  0  0  0  0  0  0  0  0  0
    8.8390   30.2446  201.7500 O   0  0  0  0  0  0  0  0  0  0  0  0
    7.5653   29.9117  201.3625 C   0  0  0  0  0  0  0  0  0  0  0  0
    6.5584   30.8312  201.6413 C   0  0  0  0  0  0  0  0  0  0  0  0
    5.2457   30.5842  201.2902 C   0  0  0  0  0  0  0  0  0  0  0  0
    6.8470   32.0233  202.2818 O   0  0  0  0  0  0  0  0  0  0  0  0
    5.8209   32.9635  202.5024 C   0  0  0  0  0  0  0  0  0  0  0  0
    7.2400   28.7361  200.7239 C   0  0  0  0  0  0  0  0  0  0  0  0
    5.9365   28.4634  200.3623 C   0  0  0  0  0  0  0  0  0  0  0  0
    4.9252   29.3977  200.6479 C   0  0  0  0  0  0  0  0  0  0  0  0
    3.6763   29.1082  200.2970 N   0  0  0  0  0  0  0  0  0  0  0  0
    3.3517   27.9545  199.6809 C   0  0  0  0  0  0  0  0  0  0  0  0
    4.3388   27.0795  199.4205 N   0  0  0  0  0  0  0  0  0  0  0  0
    5.6273   27.2815  199.7350 C   0  0  0  0  0  0  0  0  0  0  0  0
    6.6368   26.3435  199.4471 N   0  0  0  0  0  0  0  0  0  0  0  0
    6.4806   25.2544  198.5564 C   0  0  0  0  0  0  0  0  0  0  0  0
    5.5078   25.2617  197.5780 C   0  0  0  0  0  0  0  0  0  0  0  0
    5.3155   24.2312  196.6805 C   0  0  0  0  0  0  0  0  0  0  0  0
    4.0778   24.2632  195.4439 Cl  0  0  0  0  0  0  0  0  0  0  0  0
    6.1296   23.1011  196.7341 C   0  0  0  0  0  0  0  0  0  0  0  0
    5.9547   22.0803  195.8589 F   0  0  0  0  0  0  0  0  0  0  0  0
    7.1030   23.0828  197.7063 C   0  0  0  0  0  0  0  0  0  0  0  0
    7.2887   24.1231  198.6027 C   0  0  0  0  0  0  0  0  0  0  0  0
 20 19  2  0
 20 21  1  0
 18 13  1  0
 18 17  2  0
 18 19  1  0
 17 16  1  0
 17 22  1  0
 22 21  2  0
 22 23  1  0
 15 14  1  0
 30 28  1  0
 30 31  2  0
 31 24  1  0
 25 24  2  0
 25 26  1  0
 13 12  2  0
 16 11  2  0
  8  7  1  0
  8  9  1  0
  9 10  1  0
  2  1  1  0
  2  3  1  0
  4  3  1  0
  4  5  1  0
  7  6  1  0
  1  6  1  0
  5  6  1  0
 28 26  2  0
 28 29  1  0
 26 27  1  0
 24 23  1  0
 12 11  1  0
 12 14  1  0
 11 10  1  0
M  CHG  1   6   1
M  END
$$$$
