
     RDKit          3D

 31 34  0  0  0  0  0  0  0  0999 V2000
   13.6252   29.5792  202.4339 C   0  0  0  0  0  0  0  0  0  0  0  0
   15.0337   29.4401  202.9646 C   0  0  0  0  0  0  0  0  0  0  0  0
   15.0941   29.7216  204.3425 O   0  0  0  0  0  0  0  0  0  0  0  0
   14.1738   28.9050  205.0334 C   0  0  0  0  0  0  0  0  0  0  0  0
   12.7558   29.1383  204.5602 C   0  0  0  0  0  0  0  0  0  0  0  0
   12.8008   30.1074  203.4977 N   0  0  0  0  0  4  0  0  0  0  0  0
   11.4860   30.4887  203.0322 C   0  0  0  0  0  0  0  0  0  0  0  0
   11.0905   29.7328  201.7805 C   0  0  0  0  0  0  0  0  0  0  0  0
    9.7380   29.1138  202.0285 C   0  0  0  0  0  0  0  0  0  0  0  0
    8.6845   30.0033  201.8492 O   0  0  0  0  0  0  0  0  0  0  0  0
    7.3951   29.7158  201.4778 C   0  0  0  0  0  0  0  0  0  0  0  0
    6.4248   30.6698  201.7700 C   0  0  0  0  0  0  0  0  0  0  0  0
    5.0998   30.4696  201.4356 C   0  0  0  0  0  0  0  0  0  0  0  0
    6.7633   31.8503  202.4075 O   0  0  0  0  0  0  0  0  0  0  0  0
    6.0593   33.0332  202.1062 C   0  0  0  0  0  0  0  0  0  0  0  0
    7.0204   28.5530  200.8427 C   0  0  0  0  0  0  0  0  0  0  0  0
    5.7037   28.3267  200.4977 C   0  0  0  0  0  0  0  0  0  0  0  0
    4.7297   29.2957  200.7968 C   0  0  0  0  0  0  0  0  0  0  0  0
    3.4669   29.0507  200.4616 N   0  0  0  0  0  0  0  0  0  0  0  0
    3.0941   27.9098  199.8490 C   0  0  0  0  0  0  0  0  0  0  0  0
    4.0464   27.0009  199.5755 N   0  0  0  0  0  0  0  0  0  0  0  0
    5.3451   27.1571  199.8737 C   0  0  0  0  0  0  0  0  0  0  0  0
    6.3172   26.1845  199.5723 N   0  0  0  0  0  0  0  0  0  0  0  0
    6.0729   25.0312  198.7887 C   0  0  0  0  0  0  0  0  0  0  0  0
    5.3829   25.1071  197.5963 C   0  0  0  0  0  0  0  0  0  0  0  0
    5.1223   24.0174  196.7907 C   0  0  0  0  0  0  0  0  0  0  0  0
    4.2489   24.1370  195.2791 Cl  0  0  0  0  0  0  0  0  0  0  0  0
    5.5641   22.7508  197.1695 C   0  0  0  0  0  0  0  0  0  0  0  0
    5.3173   21.6699  196.3888 F   0  0  0  0  0  0  0  0  0  0  0  0
    6.2529   22.6632  198.3573 C   0  0  0  0  0  0  0  0  0  0  0  0
    6.5103   23.7637  199.1591 C   0  0  0  0  0  0  0  0  0  0  0  0
 20 19  2  0
 20 21  1  0
 18 13  1  0
 18 17  2  0
 18 19  1  0
 17 16  1  0
 17 22  1  0
 22 21  2  0
 22 23  1  0
 15 14  1  0
 30 28  1  0
 30 31  2  0
 31 24  1  0
 25 24  2  0
 25 26  1  0
 13 12  2  0
 16 11  2  0
  8  7  1  0
  8  9  1  0
  9 10  1  0
  2  1  1  0
  2  3  1  0
  4  3  1  0
  4  5  1  0
  7  6  1  0
  1  6  1  0
  5  6  1  0
 28 26  2  0
 28 29  1  0
 26 27  1  0
 24 23  1  0
 12 11  1  0
 12 14  1  0
 11 10  1  0
M  CHG  1   6   1
M  END
$$$$
