
     RDKit          3D

 31 34  0  0  0  0  0  0  0  0999 V2000
  -17.5615   10.8323  162.6711 C   0  0  0  0  0  0  0  0  0  0  0  0
  -17.3736   12.3302  162.5962 C   0  0  0  0  0  0  0  0  0  0  0  0
  -17.7513   12.8335  161.3370 O   0  0  0  0  0  0  0  0  0  0  0  0
  -19.0752   12.4403  161.0477 C   0  0  0  0  0  0  0  0  0  0  0  0
  -19.2173   10.9342  161.0222 C   0  0  0  0  0  0  0  0  0  0  0  0
  -17.9380   10.3664  161.3553 N   0  0  0  0  0  4  0  0  0  0  0  0
  -17.9250    8.9234  161.2621 C   0  0  0  0  0  0  0  0  0  0  0  0
  -17.1295    8.4436  160.0656 C   0  0  0  0  0  0  0  0  0  0  0  0
  -17.5334    7.0169  159.7907 C   0  0  0  0  0  0  0  0  0  0  0  0
  -16.9789    6.1063  160.6831 O   0  0  0  0  0  0  0  0  0  0  0  0
  -16.3345    4.9300  160.3927 C   0  0  0  0  0  0  0  0  0  0  0  0
  -17.0903    3.7629  160.4530 C   0  0  0  0  0  0  0  0  0  0  0  0
  -16.5292    2.5312  160.1779 C   0  0  0  0  0  0  0  0  0  0  0  0
  -18.4309    3.8055  160.7928 O   0  0  0  0  0  0  0  0  0  0  0  0
  -19.1620    2.6058  160.9014 C   0  0  0  0  0  0  0  0  0  0  0  0
  -15.0032    4.8483  160.0510 C   0  0  0  0  0  0  0  0  0  0  0  0
  -14.4168    3.6308  159.7718 C   0  0  0  0  0  0  0  0  0  0  0  0
  -15.1874    2.4565  159.8353 C   0  0  0  0  0  0  0  0  0  0  0  0
  -14.5976    1.2952  159.5700 N   0  0  0  0  0  0  0  0  0  0  0  0
  -13.2926    1.2093  159.2451 C   0  0  0  0  0  0  0  0  0  0  0  0
  -12.5800    2.3483  159.1922 N   0  0  0  0  0  0  0  0  0  0  0  0
  -13.0851    3.5657  159.4426 C   0  0  0  0  0  0  0  0  0  0  0  0
  -12.3100    4.7391  159.3777 N   0  0  0  0  0  0  0  0  0  0  0  0
  -10.9946    4.7962  158.8577 C   0  0  0  0  0  0  0  0  0  0  0  0
  -10.5842    3.9480  157.8498 C   0  0  0  0  0  0  0  0  0  0  0  0
   -9.3176    3.9645  157.3024 C   0  0  0  0  0  0  0  0  0  0  0  0
   -8.8193    2.8822  156.0208 Cl  0  0  0  0  0  0  0  0  0  0  0  0
   -8.3703    4.8748  157.7681 C   0  0  0  0  0  0  0  0  0  0  0  0
   -7.1216    4.9048  157.2401 F   0  0  0  0  0  0  0  0  0  0  0  0
   -8.7685    5.7252  158.7735 C   0  0  0  0  0  0  0  0  0  0  0  0
  -10.0432    5.7015  159.3164 C   0  0  0  0  0  0  0  0  0  0  0  0
 20 19  2  0
 20 21  1  0
 18 13  1  0
 18 17  2  0
 18 19  1  0
 17 16  1  0
 17 22  1  0
 22 21  2  0
 22 23  1  0
 15 14  1  0
 30 28  1  0
 30 31  2  0
 31 24  1  0
 25 24  2  0
 25 26  1  0
 13 12  2  0
 16 11  2  0
  8  7  1  0
  8  9  1  0
  9 10  1  0
  2  1  1  0
  2  3  1  0
  4  3  1  0
  4  5  1  0
  7  6  1  0
  1  6  1  0
  5  6  1  0
 28 26  2  0
 28 29  1  0
 26 27  1  0
 24 23  1  0
 12 11  1  0
 12 14  1  0
 11 10  1  0
M  CHG  1   6   1
M  END
$$$$
