
     RDKit          3D

 31 34  0  0  0  0  0  0  0  0999 V2000
   39.8151    0.7440  -36.9632 C   0  0  0  0  0  0  0  0  0  0  0  0
   39.4060    2.0318  -37.6158 C   0  0  0  0  0  0  0  0  0  0  0  0
   40.4712    2.6294  -38.2438 O   0  0  0  0  0  0  0  0  0  0  0  0
   41.6552    2.2087  -37.6913 C   0  0  0  0  0  0  0  0  0  0  0  0
   41.6063    2.0536  -36.1865 C   0  0  0  0  0  0  0  0  0  0  0  0
   40.7239    0.9744  -35.8330 N   0  0  0  0  0  4  0  0  0  0  0  0
   39.8897    1.2735  -34.6970 C   0  0  0  0  0  0  0  0  0  0  0  0
   39.4188    0.0782  -33.9340 C   0  0  0  0  0  0  0  0  0  0  0  0
   38.6892    0.4286  -32.6537 C   0  0  0  0  0  0  0  0  0  0  0  0
   37.8639   -0.6373  -32.2258 O   0  0  0  0  0  0  0  0  0  0  0  0
   37.1689   -0.6077  -31.0486 C   0  0  0  0  0  0  0  0  0  0  0  0
   37.3550   -1.5666  -30.0875 C   0  0  0  0  0  0  0  0  0  0  0  0
   36.6749   -1.5596  -28.9032 C   0  0  0  0  0  0  0  0  0  0  0  0
   38.2781   -2.5602  -30.3721 O   0  0  0  0  0  0  0  0  0  0  0  0
   38.4141   -3.6438  -29.4733 C   0  0  0  0  0  0  0  0  0  0  0  0
   36.2465    0.4149  -30.8041 C   0  0  0  0  0  0  0  0  0  0  0  0
   35.5505    0.4374  -29.6140 C   0  0  0  0  0  0  0  0  0  0  0  0
   35.7689   -0.5622  -28.6541 C   0  0  0  0  0  0  0  0  0  0  0  0
   35.0670   -0.4986  -27.5088 N   0  0  0  0  0  0  0  0  0  0  0  0
   34.1786    0.4763  -27.2617 C   0  0  0  0  0  0  0  0  0  0  0  0
   33.9926    1.4145  -28.1975 N   0  0  0  0  0  0  0  0  0  0  0  0
   34.6432    1.4386  -29.3708 C   0  0  0  0  0  0  0  0  0  0  0  0
   34.3854    2.4309  -30.3331 N   0  0  0  0  0  0  0  0  0  0  0  0
   33.5261    3.5178  -29.9814 C   0  0  0  0  0  0  0  0  0  0  0  0
   33.5386    4.0029  -28.7076 C   0  0  0  0  0  0  0  0  0  0  0  0
   32.6867    5.0543  -28.3322 C   0  0  0  0  0  0  0  0  0  0  0  0
   32.7084    5.6741  -26.6825 Cl  0  0  0  0  0  0  0  0  0  0  0  0
   31.8216    5.6176  -29.2419 C   0  0  0  0  0  0  0  0  0  0  0  0
   30.9970    6.6214  -28.9116 F   0  0  0  0  0  0  0  0  0  0  0  0
   31.8221    5.1102  -30.5412 C   0  0  0  0  0  0  0  0  0  0  0  0
   32.6603    4.0787  -30.9013 C   0  0  0  0  0  0  0  0  0  0  0  0
 20 19  2  0
 20 21  1  0
 18 13  1  0
 18 17  2  0
 18 19  1  0
 17 16  1  0
 17 22  1  0
 22 21  2  0
 22 23  1  0
 15 14  1  0
 30 28  1  0
 30 31  2  0
 31 24  1  0
 25 24  2  0
 25 26  1  0
 13 12  2  0
 16 11  2  0
  8  7  1  0
  8  9  1  0
  9 10  1  0
  2  1  1  0
  2  3  1  0
  4  3  1  0
  4  5  1  0
  7  6  1  0
  1  6  1  0
  5  6  1  0
 28 26  2  0
 28 29  1  0
 26 27  1  0
 24 23  1  0
 12 11  1  0
 12 14  1  0
 11 10  1  0
M  CHG  1   6   1
M  END
$$$$
