
     RDKit          3D

 31 34  0  0  0  0  0  0  0  0999 V2000
   39.2499    1.1692  -37.3868 C   0  0  0  0  0  0  0  0  0  0  0  0
   39.5778    2.5265  -37.9361 C   0  0  0  0  0  0  0  0  0  0  0  0
   40.9270    2.6595  -38.1558 O   0  0  0  0  0  0  0  0  0  0  0  0
   41.6330    1.7872  -37.3654 C   0  0  0  0  0  0  0  0  0  0  0  0
   41.0677    1.6327  -35.9699 C   0  0  0  0  0  0  0  0  0  0  0  0
   39.7819    0.9911  -36.0297 N   0  0  0  0  0  4  0  0  0  0  0  0
   38.8149    1.5756  -35.1357 C   0  0  0  0  0  0  0  0  0  0  0  0
   38.3661    0.6802  -34.0269 C   0  0  0  0  0  0  0  0  0  0  0  0
   38.7763    1.1689  -32.6532 C   0  0  0  0  0  0  0  0  0  0  0  0
   38.8412    0.1014  -31.7276 O   0  0  0  0  0  0  0  0  0  0  0  0
   37.8954   -0.0969  -30.7601 C   0  0  0  0  0  0  0  0  0  0  0  0
   37.8575   -1.2547  -30.0281 C   0  0  0  0  0  0  0  0  0  0  0  0
   36.9246   -1.4774  -29.0558 C   0  0  0  0  0  0  0  0  0  0  0  0
   38.8218   -2.2061  -30.3203 O   0  0  0  0  0  0  0  0  0  0  0  0
   38.9482   -3.3326  -29.4745 C   0  0  0  0  0  0  0  0  0  0  0  0
   36.9409    0.8916  -30.4992 C   0  0  0  0  0  0  0  0  0  0  0  0
   35.9913    0.6835  -29.5214 C   0  0  0  0  0  0  0  0  0  0  0  0
   35.9851   -0.5153  -28.7926 C   0  0  0  0  0  0  0  0  0  0  0  0
   35.0399   -0.6730  -27.8490 N   0  0  0  0  0  0  0  0  0  0  0  0
   34.1180    0.2667  -27.5890 C   0  0  0  0  0  0  0  0  0  0  0  0
   34.1503    1.3987  -28.3018 N   0  0  0  0  0  0  0  0  0  0  0  0
   35.0518    1.6507  -29.2631 C   0  0  0  0  0  0  0  0  0  0  0  0
   35.0202    2.8451  -30.0045 N   0  0  0  0  0  0  0  0  0  0  0  0
   34.0175    3.8158  -29.6951 C   0  0  0  0  0  0  0  0  0  0  0  0
   33.9692    4.3616  -28.4470 C   0  0  0  0  0  0  0  0  0  0  0  0
   32.9790    5.2995  -28.1123 C   0  0  0  0  0  0  0  0  0  0  0  0
   32.9231    5.9988  -26.4955 Cl  0  0  0  0  0  0  0  0  0  0  0  0
   32.0367    5.6878  -29.0368 C   0  0  0  0  0  0  0  0  0  0  0  0
   31.0800    6.5802  -28.7451 F   0  0  0  0  0  0  0  0  0  0  0  0
   32.1010    5.1204  -30.3094 C   0  0  0  0  0  0  0  0  0  0  0  0
   33.0749    4.2011  -30.6296 C   0  0  0  0  0  0  0  0  0  0  0  0
 20 19  2  0
 20 21  1  0
 18 13  1  0
 18 17  2  0
 18 19  1  0
 17 16  1  0
 17 22  1  0
 22 21  2  0
 22 23  1  0
 15 14  1  0
 30 28  1  0
 30 31  2  0
 31 24  1  0
 25 24  2  0
 25 26  1  0
 13 12  2  0
 16 11  2  0
  8  7  1  0
  8  9  1  0
  9 10  1  0
  2  1  1  0
  2  3  1  0
  4  3  1  0
  4  5  1  0
  7  6  1  0
  1  6  1  0
  5  6  1  0
 28 26  2  0
 28 29  1  0
 26 27  1  0
 24 23  1  0
 12 11  1  0
 12 14  1  0
 11 10  1  0
M  CHG  1   6   1
M  END
$$$$
