
     RDKit          3D

 31 34  0  0  0  0  0  0  0  0999 V2000
   42.6042    0.5459  -35.2543 C   0  0  0  0  0  0  0  0  0  0  0  0
   43.2511   -0.8016  -35.3858 C   0  0  0  0  0  0  0  0  0  0  0  0
   43.2622   -1.2205  -36.6937 O   0  0  0  0  0  0  0  0  0  0  0  0
   42.2687   -0.5987  -37.4081 C   0  0  0  0  0  0  0  0  0  0  0  0
   40.9757   -0.4324  -36.6391 C   0  0  0  0  0  0  0  0  0  0  0  0
   41.1671    0.4880  -35.5507 N   0  0  0  0  0  4  0  0  0  0  0  0
   40.5192    0.0693  -34.3339 C   0  0  0  0  0  0  0  0  0  0  0  0
   39.0347    0.2385  -34.3248 C   0  0  0  0  0  0  0  0  0  0  0  0
   38.4978    0.7865  -33.0188 C   0  0  0  0  0  0  0  0  0  0  0  0
   38.6161   -0.1629  -31.9772 O   0  0  0  0  0  0  0  0  0  0  0  0
   37.7552   -0.2072  -30.9157 C   0  0  0  0  0  0  0  0  0  0  0  0
   37.8253   -1.2088  -29.9833 C   0  0  0  0  0  0  0  0  0  0  0  0
   36.9788   -1.2757  -28.9137 C   0  0  0  0  0  0  0  0  0  0  0  0
   38.8079   -2.1673  -30.1741 O   0  0  0  0  0  0  0  0  0  0  0  0
   38.9704   -3.1817  -29.2021 C   0  0  0  0  0  0  0  0  0  0  0  0
   36.7784    0.7822  -30.7632 C   0  0  0  0  0  0  0  0  0  0  0  0
   35.9149    0.7302  -29.6895 C   0  0  0  0  0  0  0  0  0  0  0  0
   36.0182   -0.3114  -28.7554 C   0  0  0  0  0  0  0  0  0  0  0  0
   35.1543   -0.3202  -27.7248 N   0  0  0  0  0  0  0  0  0  0  0  0
   34.2120    0.6220  -27.5668 C   0  0  0  0  0  0  0  0  0  0  0  0
   34.1389    1.6019  -28.4752 N   0  0  0  0  0  0  0  0  0  0  0  0
   34.9537    1.6986  -29.5369 C   0  0  0  0  0  0  0  0  0  0  0  0
   34.8120    2.7323  -30.4796 N   0  0  0  0  0  0  0  0  0  0  0  0
   33.9799    3.8474  -30.1517 C   0  0  0  0  0  0  0  0  0  0  0  0
   33.6641    4.0937  -28.8488 C   0  0  0  0  0  0  0  0  0  0  0  0
   32.8294    5.1691  -28.5041 C   0  0  0  0  0  0  0  0  0  0  0  0
   32.4250    5.4790  -26.8169 Cl  0  0  0  0  0  0  0  0  0  0  0  0
   32.3125    5.9973  -29.4738 C   0  0  0  0  0  0  0  0  0  0  0  0
   31.5128    7.0304  -29.1741 F   0  0  0  0  0  0  0  0  0  0  0  0
   32.6462    5.7319  -30.8019 C   0  0  0  0  0  0  0  0  0  0  0  0
   33.4652    4.6751  -31.1317 C   0  0  0  0  0  0  0  0  0  0  0  0
 20 19  2  0
 20 21  1  0
 18 13  1  0
 18 17  2  0
 18 19  1  0
 17 16  1  0
 17 22  1  0
 22 21  2  0
 22 23  1  0
 15 14  1  0
 30 28  1  0
 30 31  2  0
 31 24  1  0
 25 24  2  0
 25 26  1  0
 13 12  2  0
 16 11  2  0
  8  7  1  0
  8  9  1  0
  9 10  1  0
  2  1  1  0
  2  3  1  0
  4  3  1  0
  4  5  1  0
  7  6  1  0
  1  6  1  0
  5  6  1  0
 28 26  2  0
 28 29  1  0
 26 27  1  0
 24 23  1  0
 12 11  1  0
 12 14  1  0
 11 10  1  0
M  CHG  1   6   1
M  END
$$$$
