
     RDKit          3D

 31 34  0  0  0  0  0  0  0  0999 V2000
   38.6954    3.0524  -35.9620 C   0  0  0  0  0  0  0  0  0  0  0  0
   40.1109    3.3189  -36.3825 C   0  0  0  0  0  0  0  0  0  0  0  0
   40.2934    3.0384  -37.7145 O   0  0  0  0  0  0  0  0  0  0  0  0
   39.3533    2.1386  -38.1514 C   0  0  0  0  0  0  0  0  0  0  0  0
   39.0356    1.0512  -37.1478 C   0  0  0  0  0  0  0  0  0  0  0  0
   38.3797    1.6188  -36.0006 N   0  0  0  0  0  4  0  0  0  0  0  0
   38.8436    1.0682  -34.7526 C   0  0  0  0  0  0  0  0  0  0  0  0
   37.7864    0.4095  -33.9274 C   0  0  0  0  0  0  0  0  0  0  0  0
   38.3186   -0.6869  -33.0281 C   0  0  0  0  0  0  0  0  0  0  0  0
   38.6230   -0.1903  -31.7393 O   0  0  0  0  0  0  0  0  0  0  0  0
   37.7739   -0.3240  -30.6758 C   0  0  0  0  0  0  0  0  0  0  0  0
   37.9266   -1.3370  -29.7657 C   0  0  0  0  0  0  0  0  0  0  0  0
   37.0936   -1.4924  -28.6947 C   0  0  0  0  0  0  0  0  0  0  0  0
   38.9796   -2.2119  -29.9810 O   0  0  0  0  0  0  0  0  0  0  0  0
   39.2454   -3.2113  -29.0162 C   0  0  0  0  0  0  0  0  0  0  0  0
   36.7240    0.5829  -30.4981 C   0  0  0  0  0  0  0  0  0  0  0  0
   35.8730    0.4409  -29.4226 C   0  0  0  0  0  0  0  0  0  0  0  0
   36.0619   -0.6093  -28.5118 C   0  0  0  0  0  0  0  0  0  0  0  0
   35.2069   -0.7073  -27.4784 N   0  0  0  0  0  0  0  0  0  0  0  0
   34.1952    0.1552  -27.2964 C   0  0  0  0  0  0  0  0  0  0  0  0
   34.0413    1.1457  -28.1830 N   0  0  0  0  0  0  0  0  0  0  0  0
   34.8404    1.3282  -29.2453 C   0  0  0  0  0  0  0  0  0  0  0  0
   34.6138    2.3677  -30.1647 N   0  0  0  0  0  0  0  0  0  0  0  0
   33.7233    3.4238  -29.7970 C   0  0  0  0  0  0  0  0  0  0  0  0
   33.7699    3.9371  -28.5351 C   0  0  0  0  0  0  0  0  0  0  0  0
   32.8894    4.9585  -28.1434 C   0  0  0  0  0  0  0  0  0  0  0  0
   32.9557    5.6151  -26.5092 Cl  0  0  0  0  0  0  0  0  0  0  0  0
   31.9611    5.4634  -29.0248 C   0  0  0  0  0  0  0  0  0  0  0  0
   31.1080    6.4374  -28.6784 F   0  0  0  0  0  0  0  0  0  0  0  0
   31.9274    4.9277  -30.3122 C   0  0  0  0  0  0  0  0  0  0  0  0
   32.7940    3.9260  -30.6884 C   0  0  0  0  0  0  0  0  0  0  0  0
 20 19  2  0
 20 21  1  0
 18 13  1  0
 18 17  2  0
 18 19  1  0
 17 16  1  0
 17 22  1  0
 22 21  2  0
 22 23  1  0
 15 14  1  0
 30 28  1  0
 30 31  2  0
 31 24  1  0
 25 24  2  0
 25 26  1  0
 13 12  2  0
 16 11  2  0
  8  7  1  0
  8  9  1  0
  9 10  1  0
  2  1  1  0
  2  3  1  0
  4  3  1  0
  4  5  1  0
  7  6  1  0
  1  6  1  0
  5  6  1  0
 28 26  2  0
 28 29  1  0
 26 27  1  0
 24 23  1  0
 12 11  1  0
 12 14  1  0
 11 10  1  0
M  CHG  1   6   1
M  END
$$$$
