
     RDKit          3D

 31 34  0  0  0  0  0  0  0  0999 V2000
   40.4591   -0.0645  -36.3492 C   0  0  0  0  0  0  0  0  0  0  0  0
   39.9076   -0.0327  -37.7443 C   0  0  0  0  0  0  0  0  0  0  0  0
   40.7456    0.6483  -38.5931 O   0  0  0  0  0  0  0  0  0  0  0  0
   41.5353    1.5246  -37.8912 C   0  0  0  0  0  0  0  0  0  0  0  0
   40.8151    2.2231  -36.7579 C   0  0  0  0  0  0  0  0  0  0  0  0
   40.4651    1.2709  -35.7384 N   0  0  0  0  0  4  0  0  0  0  0  0
   39.1442    1.4762  -35.2009 C   0  0  0  0  0  0  0  0  0  0  0  0
   39.0505    1.3723  -33.7133 C   0  0  0  0  0  0  0  0  0  0  0  0
   37.8747    0.5434  -33.2392 C   0  0  0  0  0  0  0  0  0  0  0  0
   38.2463   -0.3123  -32.1761 O   0  0  0  0  0  0  0  0  0  0  0  0
   37.5059   -0.4360  -31.0331 C   0  0  0  0  0  0  0  0  0  0  0  0
   37.7445   -1.4436  -30.1357 C   0  0  0  0  0  0  0  0  0  0  0  0
   37.0208   -1.5890  -28.9867 C   0  0  0  0  0  0  0  0  0  0  0  0
   38.7684   -2.3237  -30.4479 O   0  0  0  0  0  0  0  0  0  0  0  0
   39.1409   -3.3029  -29.4977 C   0  0  0  0  0  0  0  0  0  0  0  0
   36.4815    0.4760  -30.7589 C   0  0  0  0  0  0  0  0  0  0  0  0
   35.7403    0.3442  -29.6037 C   0  0  0  0  0  0  0  0  0  0  0  0
   36.0149   -0.7008  -28.7089 C   0  0  0  0  0  0  0  0  0  0  0  0
   35.2658   -0.7890  -27.5955 N   0  0  0  0  0  0  0  0  0  0  0  0
   34.2796    0.0785  -27.3205 C   0  0  0  0  0  0  0  0  0  0  0  0
   34.0421    1.0638  -28.1942 N   0  0  0  0  0  0  0  0  0  0  0  0
   34.7330    1.2364  -29.3314 C   0  0  0  0  0  0  0  0  0  0  0  0
   34.4199    2.2708  -30.2310 N   0  0  0  0  0  0  0  0  0  0  0  0
   33.5036    3.2857  -29.8141 C   0  0  0  0  0  0  0  0  0  0  0  0
   33.5796    3.7845  -28.5479 C   0  0  0  0  0  0  0  0  0  0  0  0
   32.6755    4.7649  -28.1078 C   0  0  0  0  0  0  0  0  0  0  0  0
   32.7802    5.4030  -26.4683 Cl  0  0  0  0  0  0  0  0  0  0  0  0
   31.6939    5.2431  -28.9452 C   0  0  0  0  0  0  0  0  0  0  0  0
   30.8173    6.1778  -28.5521 F   0  0  0  0  0  0  0  0  0  0  0  0
   31.6307    4.7228  -30.2378 C   0  0  0  0  0  0  0  0  0  0  0  0
   32.5208    3.7614  -30.6615 C   0  0  0  0  0  0  0  0  0  0  0  0
 20 19  2  0
 20 21  1  0
 18 13  1  0
 18 17  2  0
 18 19  1  0
 17 16  1  0
 17 22  1  0
 22 21  2  0
 22 23  1  0
 15 14  1  0
 30 28  1  0
 30 31  2  0
 31 24  1  0
 25 24  2  0
 25 26  1  0
 13 12  2  0
 16 11  2  0
  8  7  1  0
  8  9  1  0
  9 10  1  0
  2  1  1  0
  2  3  1  0
  4  3  1  0
  4  5  1  0
  7  6  1  0
  1  6  1  0
  5  6  1  0
 28 26  2  0
 28 29  1  0
 26 27  1  0
 24 23  1  0
 12 11  1  0
 12 14  1  0
 11 10  1  0
M  CHG  1   6   1
M  END
$$$$
