
     RDKit          3D

 31 34  0  0  0  0  0  0  0  0999 V2000
   38.4686    2.1325  -36.6504 C   0  0  0  0  0  0  0  0  0  0  0  0
   39.6531    2.5490  -37.4720 C   0  0  0  0  0  0  0  0  0  0  0  0
   39.7765    1.7681  -38.5951 O   0  0  0  0  0  0  0  0  0  0  0  0
   39.1606    0.5554  -38.4098 C   0  0  0  0  0  0  0  0  0  0  0  0
   39.3446   -0.0174  -37.0209 C   0  0  0  0  0  0  0  0  0  0  0  0
   38.6611    0.8030  -36.0574 N   0  0  0  0  0  4  0  0  0  0  0  0
   39.4168    1.0049  -34.8474 C   0  0  0  0  0  0  0  0  0  0  0  0
   38.6248    1.5319  -33.6952 C   0  0  0  0  0  0  0  0  0  0  0  0
   37.7344    0.4911  -33.0487 C   0  0  0  0  0  0  0  0  0  0  0  0
   38.1597    0.1994  -31.7317 O   0  0  0  0  0  0  0  0  0  0  0  0
   37.2852   -0.0025  -30.7000 C   0  0  0  0  0  0  0  0  0  0  0  0
   37.3302   -1.1426  -29.9412 C   0  0  0  0  0  0  0  0  0  0  0  0
   36.4697   -1.3684  -28.9050 C   0  0  0  0  0  0  0  0  0  0  0  0
   38.3020   -2.0726  -30.2747 O   0  0  0  0  0  0  0  0  0  0  0  0
   38.4450   -3.2286  -29.4723 C   0  0  0  0  0  0  0  0  0  0  0  0
   36.3201    0.9641  -30.3992 C   0  0  0  0  0  0  0  0  0  0  0  0
   35.4428    0.7527  -29.3567 C   0  0  0  0  0  0  0  0  0  0  0  0
   35.5204   -0.4277  -28.6024 C   0  0  0  0  0  0  0  0  0  0  0  0
   34.6438   -0.5896  -27.5954 N   0  0  0  0  0  0  0  0  0  0  0  0
   33.7126    0.3292  -27.2966 C   0  0  0  0  0  0  0  0  0  0  0  0
   33.6640    1.4439  -28.0352 N   0  0  0  0  0  0  0  0  0  0  0  0
   34.4930    1.6984  -29.0591 C   0  0  0  0  0  0  0  0  0  0  0  0
   34.3770    2.8728  -29.8235 N   0  0  0  0  0  0  0  0  0  0  0  0
   33.6355    3.9694  -29.2840 C   0  0  0  0  0  0  0  0  0  0  0  0
   32.7538    4.6425  -30.0762 C   0  0  0  0  0  0  0  0  0  0  0  0
   32.0313    5.7377  -29.5755 C   0  0  0  0  0  0  0  0  0  0  0  0
   30.8945    6.6031  -30.6075 Cl  0  0  0  0  0  0  0  0  0  0  0  0
   32.1977    6.1548  -28.2748 C   0  0  0  0  0  0  0  0  0  0  0  0
   31.5223    7.1970  -27.7705 F   0  0  0  0  0  0  0  0  0  0  0  0
   33.1031    5.4547  -27.4776 C   0  0  0  0  0  0  0  0  0  0  0  0
   33.8079    4.3819  -27.9762 C   0  0  0  0  0  0  0  0  0  0  0  0
 20 19  2  0
 20 21  1  0
 18 13  1  0
 18 17  2  0
 18 19  1  0
 17 16  1  0
 17 22  1  0
 22 21  2  0
 22 23  1  0
 15 14  1  0
 30 28  1  0
 30 31  2  0
 31 24  1  0
 25 24  2  0
 25 26  1  0
 13 12  2  0
 16 11  2  0
  8  7  1  0
  8  9  1  0
  9 10  1  0
  2  1  1  0
  2  3  1  0
  4  3  1  0
  4  5  1  0
  7  6  1  0
  1  6  1  0
  5  6  1  0
 28 26  2  0
 28 29  1  0
 26 27  1  0
 24 23  1  0
 12 11  1  0
 12 14  1  0
 11 10  1  0
M  CHG  1   6   1
M  END
$$$$
