
     RDKit          3D

 31 34  0  0  0  0  0  0  0  0999 V2000
   39.3118    2.8122  -36.6295 C   0  0  0  0  0  0  0  0  0  0  0  0
   40.5207    3.6245  -36.2691 C   0  0  0  0  0  0  0  0  0  0  0  0
   41.6374    3.1699  -36.9269 O   0  0  0  0  0  0  0  0  0  0  0  0
   41.4820    1.8553  -37.2899 C   0  0  0  0  0  0  0  0  0  0  0  0
   40.7765    1.0132  -36.2486 C   0  0  0  0  0  0  0  0  0  0  0  0
   39.4092    1.4394  -36.1173 N   0  0  0  0  0  4  0  0  0  0  0  0
   38.9587    1.4847  -34.7495 C   0  0  0  0  0  0  0  0  0  0  0  0
   38.8078    0.1497  -34.0955 C   0  0  0  0  0  0  0  0  0  0  0  0
   37.6600    0.0872  -33.1093 C   0  0  0  0  0  0  0  0  0  0  0  0
   38.1258    0.1543  -31.7755 O   0  0  0  0  0  0  0  0  0  0  0  0
   37.2984    0.0167  -30.6955 C   0  0  0  0  0  0  0  0  0  0  0  0
   37.3792   -1.0749  -29.8712 C   0  0  0  0  0  0  0  0  0  0  0  0
   36.5660   -1.2361  -28.7859 C   0  0  0  0  0  0  0  0  0  0  0  0
   38.3370   -2.0244  -30.1900 O   0  0  0  0  0  0  0  0  0  0  0  0
   38.8593   -2.8404  -29.1596 C   0  0  0  0  0  0  0  0  0  0  0  0
   36.3458    1.0007  -30.4119 C   0  0  0  0  0  0  0  0  0  0  0  0
   35.5160    0.8542  -29.3204 C   0  0  0  0  0  0  0  0  0  0  0  0
   35.6293   -0.2778  -28.4995 C   0  0  0  0  0  0  0  0  0  0  0  0
   34.7986   -0.3771  -27.4466 N   0  0  0  0  0  0  0  0  0  0  0  0
   33.8798    0.5590  -27.1634 C   0  0  0  0  0  0  0  0  0  0  0  0
   33.7964    1.6265  -27.9660 N   0  0  0  0  0  0  0  0  0  0  0  0
   34.5787    1.8171  -29.0393 C   0  0  0  0  0  0  0  0  0  0  0  0
   34.4266    2.9427  -29.8683 N   0  0  0  0  0  0  0  0  0  0  0  0
   33.5147    3.9683  -29.4683 C   0  0  0  0  0  0  0  0  0  0  0  0
   32.2522    3.6340  -29.0780 C   0  0  0  0  0  0  0  0  0  0  0  0
   31.3312    4.6256  -28.7033 C   0  0  0  0  0  0  0  0  0  0  0  0
   29.7003    4.1843  -28.2015 Cl  0  0  0  0  0  0  0  0  0  0  0  0
   31.6832    5.9558  -28.7218 C   0  0  0  0  0  0  0  0  0  0  0  0
   30.8249    6.9234  -28.3702 F   0  0  0  0  0  0  0  0  0  0  0  0
   32.9791    6.2805  -29.1229 C   0  0  0  0  0  0  0  0  0  0  0  0
   33.8762    5.3022  -29.4891 C   0  0  0  0  0  0  0  0  0  0  0  0
 20 19  2  0
 20 21  1  0
 18 13  1  0
 18 17  2  0
 18 19  1  0
 17 16  1  0
 17 22  1  0
 22 21  2  0
 22 23  1  0
 15 14  1  0
 30 28  1  0
 30 31  2  0
 31 24  1  0
 25 24  2  0
 25 26  1  0
 13 12  2  0
 16 11  2  0
  8  7  1  0
  8  9  1  0
  9 10  1  0
  2  1  1  0
  2  3  1  0
  4  3  1  0
  4  5  1  0
  7  6  1  0
  1  6  1  0
  5  6  1  0
 28 26  2  0
 28 29  1  0
 26 27  1  0
 24 23  1  0
 12 11  1  0
 12 14  1  0
 11 10  1  0
M  CHG  1   6   1
M  END
$$$$
