
     RDKit          3D

 31 34  0  0  0  0  0  0  0  0999 V2000
   39.4910    2.0521  -36.6993 C   0  0  0  0  0  0  0  0  0  0  0  0
   40.9240    2.2845  -37.0788 C   0  0  0  0  0  0  0  0  0  0  0  0
   41.2418    1.6261  -38.2415 O   0  0  0  0  0  0  0  0  0  0  0  0
   40.3920    0.5674  -38.4444 C   0  0  0  0  0  0  0  0  0  0  0  0
   40.0384   -0.1834  -37.1786 C   0  0  0  0  0  0  0  0  0  0  0  0
   39.2524    0.6553  -36.3142 N   0  0  0  0  0  4  0  0  0  0  0  0
   39.6268    0.5481  -34.9270 C   0  0  0  0  0  0  0  0  0  0  0  0
   38.5462    0.9023  -33.9577 C   0  0  0  0  0  0  0  0  0  0  0  0
   37.8837   -0.3041  -33.3254 C   0  0  0  0  0  0  0  0  0  0  0  0
   38.3453   -0.5088  -32.0043 O   0  0  0  0  0  0  0  0  0  0  0  0
   37.5029   -0.5824  -30.9297 C   0  0  0  0  0  0  0  0  0  0  0  0
   37.5897   -1.6085  -30.0257 C   0  0  0  0  0  0  0  0  0  0  0  0
   36.7618   -1.7049  -28.9439 C   0  0  0  0  0  0  0  0  0  0  0  0
   38.5696   -2.5604  -30.2589 O   0  0  0  0  0  0  0  0  0  0  0  0
   39.1909   -3.1860  -29.1531 C   0  0  0  0  0  0  0  0  0  0  0  0
   36.5282    0.4014  -30.7339 C   0  0  0  0  0  0  0  0  0  0  0  0
   35.6833    0.3198  -29.6473 C   0  0  0  0  0  0  0  0  0  0  0  0
   35.8034   -0.7463  -28.7433 C   0  0  0  0  0  0  0  0  0  0  0  0
   34.9574   -0.7836  -27.6986 N   0  0  0  0  0  0  0  0  0  0  0  0
   34.0174    0.1530  -27.4993 C   0  0  0  0  0  0  0  0  0  0  0  0
   33.9280    1.1567  -28.3798 N   0  0  0  0  0  0  0  0  0  0  0  0
   34.7242    1.2827  -29.4524 C   0  0  0  0  0  0  0  0  0  0  0  0
   34.5656    2.3410  -30.3645 N   0  0  0  0  0  0  0  0  0  0  0  0
   33.6898    3.4165  -30.0185 C   0  0  0  0  0  0  0  0  0  0  0  0
   33.7392    3.9504  -28.7653 C   0  0  0  0  0  0  0  0  0  0  0  0
   32.8728    4.9916  -28.3947 C   0  0  0  0  0  0  0  0  0  0  0  0
   32.9426    5.6747  -26.7715 Cl  0  0  0  0  0  0  0  0  0  0  0  0
   31.9558    5.4953  -29.2884 C   0  0  0  0  0  0  0  0  0  0  0  0
   31.1162    6.4879  -28.9621 F   0  0  0  0  0  0  0  0  0  0  0  0
   31.9190    4.9384  -30.5667 C   0  0  0  0  0  0  0  0  0  0  0  0
   32.7718    3.9174  -30.9222 C   0  0  0  0  0  0  0  0  0  0  0  0
 20 19  2  0
 20 21  1  0
 18 13  1  0
 18 17  2  0
 18 19  1  0
 17 16  1  0
 17 22  1  0
 22 21  2  0
 22 23  1  0
 15 14  1  0
 30 28  1  0
 30 31  2  0
 31 24  1  0
 25 24  2  0
 25 26  1  0
 13 12  2  0
 16 11  2  0
  8  7  1  0
  8  9  1  0
  9 10  1  0
  2  1  1  0
  2  3  1  0
  4  3  1  0
  4  5  1  0
  7  6  1  0
  1  6  1  0
  5  6  1  0
 28 26  2  0
 28 29  1  0
 26 27  1  0
 24 23  1  0
 12 11  1  0
 12 14  1  0
 11 10  1  0
M  CHG  1   6   1
M  END
$$$$
