
     RDKit          3D

 31 34  0  0  0  0  0  0  0  0999 V2000
   38.2660    2.5330  -35.8797 C   0  0  0  0  0  0  0  0  0  0  0  0
   39.1815    3.6807  -35.5694 C   0  0  0  0  0  0  0  0  0  0  0  0
   40.2138    3.7495  -36.4727 O   0  0  0  0  0  0  0  0  0  0  0  0
   40.4316    2.5238  -37.0509 C   0  0  0  0  0  0  0  0  0  0  0  0
   40.2936    1.3620  -36.0906 C   0  0  0  0  0  0  0  0  0  0  0  0
   38.9262    1.2395  -35.6622 N   0  0  0  0  0  4  0  0  0  0  0  0
   38.7965    0.9499  -34.2568 C   0  0  0  0  0  0  0  0  0  0  0  0
   37.4388    0.4903  -33.8350 C   0  0  0  0  0  0  0  0  0  0  0  0
   37.4694   -0.6823  -32.8767 C   0  0  0  0  0  0  0  0  0  0  0  0
   37.8748   -0.2772  -31.5837 O   0  0  0  0  0  0  0  0  0  0  0  0
   37.1035   -0.4729  -30.4717 C   0  0  0  0  0  0  0  0  0  0  0  0
   37.2360   -1.5989  -29.7022 C   0  0  0  0  0  0  0  0  0  0  0  0
   36.4793   -1.8182  -28.5867 C   0  0  0  0  0  0  0  0  0  0  0  0
   38.1864   -2.5214  -30.1100 O   0  0  0  0  0  0  0  0  0  0  0  0
   38.4461   -3.6430  -29.2884 C   0  0  0  0  0  0  0  0  0  0  0  0
   36.1561    0.4857  -30.0977 C   0  0  0  0  0  0  0  0  0  0  0  0
   35.3830    0.2807  -28.9746 C   0  0  0  0  0  0  0  0  0  0  0  0
   35.5482   -0.8852  -28.2119 C   0  0  0  0  0  0  0  0  0  0  0  0
   34.7718   -1.0413  -27.1251 N   0  0  0  0  0  0  0  0  0  0  0  0
   33.8587   -0.1301  -26.7554 C   0  0  0  0  0  0  0  0  0  0  0  0
   33.7248    0.9708  -27.5041 N   0  0  0  0  0  0  0  0  0  0  0  0
   34.4509    1.2185  -28.6049 C   0  0  0  0  0  0  0  0  0  0  0  0
   34.2466    2.3778  -29.3740 N   0  0  0  0  0  0  0  0  0  0  0  0
   33.4443    3.4277  -28.8285 C   0  0  0  0  0  0  0  0  0  0  0  0
   32.3690    3.8882  -29.5281 C   0  0  0  0  0  0  0  0  0  0  0  0
   31.5798    4.9346  -29.0237 C   0  0  0  0  0  0  0  0  0  0  0  0
   30.1922    5.5248  -29.9360 Cl  0  0  0  0  0  0  0  0  0  0  0  0
   31.8749    5.5173  -27.8126 C   0  0  0  0  0  0  0  0  0  0  0  0
   31.1400    6.5178  -27.3071 F   0  0  0  0  0  0  0  0  0  0  0  0
   32.9780    5.0337  -27.1092 C   0  0  0  0  0  0  0  0  0  0  0  0
   33.7470    4.0074  -27.6108 C   0  0  0  0  0  0  0  0  0  0  0  0
 20 19  2  0
 20 21  1  0
 18 13  1  0
 18 17  2  0
 18 19  1  0
 17 16  1  0
 17 22  1  0
 22 21  2  0
 22 23  1  0
 15 14  1  0
 30 28  1  0
 30 31  2  0
 31 24  1  0
 25 24  2  0
 25 26  1  0
 13 12  2  0
 16 11  2  0
  8  7  1  0
  8  9  1  0
  9 10  1  0
  2  1  1  0
  2  3  1  0
  4  3  1  0
  4  5  1  0
  7  6  1  0
  1  6  1  0
  5  6  1  0
 28 26  2  0
 28 29  1  0
 26 27  1  0
 24 23  1  0
 12 11  1  0
 12 14  1  0
 11 10  1  0
M  CHG  1   6   1
M  END
$$$$
