
     RDKit          3D

 31 34  0  0  0  0  0  0  0  0999 V2000
   42.8694  -12.8143   -0.8100 C   0  0  0  0  0  0  0  0  0  0  0  0
   42.3509  -13.4765    0.4327 C   0  0  0  0  0  0  0  0  0  0  0  0
   43.3561  -14.1310    1.1018 O   0  0  0  0  0  0  0  0  0  0  0  0
   44.3801  -14.4477    0.2443 C   0  0  0  0  0  0  0  0  0  0  0  0
   43.9143  -14.8967   -1.1241 C   0  0  0  0  0  0  0  0  0  0  0  0
   43.2897  -13.8001   -1.8139 N   0  0  0  0  0  4  0  0  0  0  0  0
   42.0986  -14.1844   -2.5276 C   0  0  0  0  0  0  0  0  0  0  0  0
   41.6270  -13.1911   -3.5394 C   0  0  0  0  0  0  0  0  0  0  0  0
   41.2702  -13.8122   -4.8739 C   0  0  0  0  0  0  0  0  0  0  0  0
   39.8694  -13.9423   -5.0206 O   0  0  0  0  0  0  0  0  0  0  0  0
   39.2646  -14.0970   -6.2371 C   0  0  0  0  0  0  0  0  0  0  0  0
   39.3157  -13.1119   -7.1882 C   0  0  0  0  0  0  0  0  0  0  0  0
   38.7214  -13.2414   -8.4110 C   0  0  0  0  0  0  0  0  0  0  0  0
   40.0077  -11.9592   -6.8519 O   0  0  0  0  0  0  0  0  0  0  0  0
   40.1765  -10.9535   -7.8319 C   0  0  0  0  0  0  0  0  0  0  0  0
   38.5766  -15.2782   -6.5332 C   0  0  0  0  0  0  0  0  0  0  0  0
   37.9701  -15.4261   -7.7627 C   0  0  0  0  0  0  0  0  0  0  0  0
   38.0448  -14.3947   -8.7108 C   0  0  0  0  0  0  0  0  0  0  0  0
   37.4380  -14.5843   -9.8958 N   0  0  0  0  0  0  0  0  0  0  0  0
   36.7741  -15.7120  -10.1927 C   0  0  0  0  0  0  0  0  0  0  0  0
   36.7205  -16.6767   -9.2669 N   0  0  0  0  0  0  0  0  0  0  0  0
   37.2926  -16.5834   -8.0568 C   0  0  0  0  0  0  0  0  0  0  0  0
   37.1778  -17.6154   -7.1086 N   0  0  0  0  0  0  0  0  0  0  0  0
   36.7855  -18.9150   -7.5566 C   0  0  0  0  0  0  0  0  0  0  0  0
   36.2544  -19.0674   -8.8026 C   0  0  0  0  0  0  0  0  0  0  0  0
   35.8399  -20.3302   -9.2560 C   0  0  0  0  0  0  0  0  0  0  0  0
   35.1528  -20.5176  -10.8682 Cl  0  0  0  0  0  0  0  0  0  0  0  0
   35.9611  -21.4407   -8.4525 C   0  0  0  0  0  0  0  0  0  0  0  0
   35.5732  -22.6578   -8.8586 F   0  0  0  0  0  0  0  0  0  0  0  0
   36.5073  -21.2675   -7.1809 C   0  0  0  0  0  0  0  0  0  0  0  0
   36.9111  -20.0257   -6.7436 C   0  0  0  0  0  0  0  0  0  0  0  0
 20 19  2  0
 20 21  1  0
 18 13  1  0
 18 17  2  0
 18 19  1  0
 17 16  1  0
 17 22  1  0
 22 21  2  0
 22 23  1  0
 15 14  1  0
 30 28  1  0
 30 31  2  0
 31 24  1  0
 25 24  2  0
 25 26  1  0
 13 12  2  0
 16 11  2  0
  8  7  1  0
  8  9  1  0
  9 10  1  0
  2  1  1  0
  2  3  1  0
  4  3  1  0
  4  5  1  0
  7  6  1  0
  1  6  1  0
  5  6  1  0
 28 26  2  0
 28 29  1  0
 26 27  1  0
 24 23  1  0
 12 11  1  0
 12 14  1  0
 11 10  1  0
M  CHG  1   6   1
M  END
$$$$
