
     RDKit          3D

 31 34  0  0  0  0  0  0  0  0999 V2000
   40.5409    1.6817  -36.2574 C   0  0  0  0  0  0  0  0  0  0  0  0
   41.6730    0.8732  -36.8195 C   0  0  0  0  0  0  0  0  0  0  0  0
   41.5092    0.6604  -38.1665 O   0  0  0  0  0  0  0  0  0  0  0  0
   40.1852    0.7630  -38.5137 C   0  0  0  0  0  0  0  0  0  0  0  0
   39.2383    0.1657  -37.4951 C   0  0  0  0  0  0  0  0  0  0  0  0
   39.2776    0.9334  -36.2795 N   0  0  0  0  0  4  0  0  0  0  0  0
   39.2701    0.1164  -35.0929 C   0  0  0  0  0  0  0  0  0  0  0  0
   39.0985    0.8706  -33.8145 C   0  0  0  0  0  0  0  0  0  0  0  0
   37.8425    0.4948  -33.0560 C   0  0  0  0  0  0  0  0  0  0  0  0
   38.1440   -0.3052  -31.9293 O   0  0  0  0  0  0  0  0  0  0  0  0
   37.2840   -0.4542  -30.8767 C   0  0  0  0  0  0  0  0  0  0  0  0
   37.3462   -1.5497  -30.0559 C   0  0  0  0  0  0  0  0  0  0  0  0
   36.5003   -1.7222  -28.9977 C   0  0  0  0  0  0  0  0  0  0  0  0
   38.3200   -2.4910  -30.3493 O   0  0  0  0  0  0  0  0  0  0  0  0
   39.1133   -3.0039  -29.2966 C   0  0  0  0  0  0  0  0  0  0  0  0
   36.3162    0.5219  -30.6182 C   0  0  0  0  0  0  0  0  0  0  0  0
   35.4534    0.3639  -29.5543 C   0  0  0  0  0  0  0  0  0  0  0  0
   35.5485   -0.7718  -28.7361 C   0  0  0  0  0  0  0  0  0  0  0  0
   34.6856   -0.8822  -27.7105 N   0  0  0  0  0  0  0  0  0  0  0  0
   33.7520    0.0462  -27.4516 C   0  0  0  0  0  0  0  0  0  0  0  0
   33.6867    1.1174  -28.2508 N   0  0  0  0  0  0  0  0  0  0  0  0
   34.5010    1.3190  -29.2979 C   0  0  0  0  0  0  0  0  0  0  0  0
   34.3675    2.4480  -30.1254 N   0  0  0  0  0  0  0  0  0  0  0  0
   33.4270    3.4592  -29.7561 C   0  0  0  0  0  0  0  0  0  0  0  0
   33.3892    3.9081  -28.4696 C   0  0  0  0  0  0  0  0  0  0  0  0
   32.4584    4.8837  -28.0775 C   0  0  0  0  0  0  0  0  0  0  0  0
   32.4156    5.4571  -26.4115 Cl  0  0  0  0  0  0  0  0  0  0  0  0
   31.5648    5.4076  -28.9833 C   0  0  0  0  0  0  0  0  0  0  0  0
   30.6651    6.3390  -28.6371 F   0  0  0  0  0  0  0  0  0  0  0  0
   31.6174    4.9380  -30.2956 C   0  0  0  0  0  0  0  0  0  0  0  0
   32.5331    3.9809  -30.6721 C   0  0  0  0  0  0  0  0  0  0  0  0
 20 19  2  0
 20 21  1  0
 18 13  1  0
 18 17  2  0
 18 19  1  0
 17 16  1  0
 17 22  1  0
 22 21  2  0
 22 23  1  0
 15 14  1  0
 30 28  1  0
 30 31  2  0
 31 24  1  0
 25 24  2  0
 25 26  1  0
 13 12  2  0
 16 11  2  0
  8  7  1  0
  8  9  1  0
  9 10  1  0
  2  1  1  0
  2  3  1  0
  4  3  1  0
  4  5  1  0
  7  6  1  0
  1  6  1  0
  5  6  1  0
 28 26  2  0
 28 29  1  0
 26 27  1  0
 24 23  1  0
 12 11  1  0
 12 14  1  0
 11 10  1  0
M  CHG  1   6   1
M  END
$$$$
