
     RDKit          3D

 31 34  0  0  0  0  0  0  0  0999 V2000
   38.4724    2.9770  -36.4137 C   0  0  0  0  0  0  0  0  0  0  0  0
   39.7207    3.3117  -37.1761 C   0  0  0  0  0  0  0  0  0  0  0  0
   39.7776    2.6208  -38.3618 O   0  0  0  0  0  0  0  0  0  0  0  0
   39.0129    1.4828  -38.2944 C   0  0  0  0  0  0  0  0  0  0  0  0
   39.0879    0.7745  -36.9588 C   0  0  0  0  0  0  0  0  0  0  0  0
   38.4846    1.5879  -35.9377 N   0  0  0  0  0  4  0  0  0  0  0  0
   39.2265    1.5895  -34.7026 C   0  0  0  0  0  0  0  0  0  0  0  0
   38.3860    1.5838  -33.4673 C   0  0  0  0  0  0  0  0  0  0  0  0
   39.1441    1.1682  -32.2236 C   0  0  0  0  0  0  0  0  0  0  0  0
   38.6985   -0.0868  -31.7471 O   0  0  0  0  0  0  0  0  0  0  0  0
   37.8374   -0.2140  -30.6925 C   0  0  0  0  0  0  0  0  0  0  0  0
   37.9236   -1.2725  -29.8266 C   0  0  0  0  0  0  0  0  0  0  0  0
   37.0772   -1.4226  -28.7653 C   0  0  0  0  0  0  0  0  0  0  0  0
   38.9227   -2.1998  -30.0767 O   0  0  0  0  0  0  0  0  0  0  0  0
   39.0376   -3.3255  -29.2282 C   0  0  0  0  0  0  0  0  0  0  0  0
   36.8436    0.7467  -30.4786 C   0  0  0  0  0  0  0  0  0  0  0  0
   35.9800    0.6108  -29.4123 C   0  0  0  0  0  0  0  0  0  0  0  0
   36.1001   -0.4870  -28.5472 C   0  0  0  0  0  0  0  0  0  0  0  0
   35.2354   -0.5770  -27.5211 N   0  0  0  0  0  0  0  0  0  0  0  0
   34.2770    0.3370  -27.3048 C   0  0  0  0  0  0  0  0  0  0  0  0
   34.1882    1.3720  -28.1482 N   0  0  0  0  0  0  0  0  0  0  0  0
   35.0023    1.5509  -29.1996 C   0  0  0  0  0  0  0  0  0  0  0  0
   34.8439    2.6407  -30.0740 N   0  0  0  0  0  0  0  0  0  0  0  0
   33.8697    3.6371  -29.7553 C   0  0  0  0  0  0  0  0  0  0  0  0
   33.7603    4.0883  -28.4738 C   0  0  0  0  0  0  0  0  0  0  0  0
   32.7952    5.0494  -28.1317 C   0  0  0  0  0  0  0  0  0  0  0  0
   32.6598    5.6258  -26.4717 Cl  0  0  0  0  0  0  0  0  0  0  0  0
   31.9397    5.5565  -29.0827 C   0  0  0  0  0  0  0  0  0  0  0  0
   31.0088    6.4738  -28.7849 F   0  0  0  0  0  0  0  0  0  0  0  0
   32.0656    5.0849  -30.3893 C   0  0  0  0  0  0  0  0  0  0  0  0
   33.0144    4.1420  -30.7165 C   0  0  0  0  0  0  0  0  0  0  0  0
 20 19  2  0
 20 21  1  0
 18 13  1  0
 18 17  2  0
 18 19  1  0
 17 16  1  0
 17 22  1  0
 22 21  2  0
 22 23  1  0
 15 14  1  0
 30 28  1  0
 30 31  2  0
 31 24  1  0
 25 24  2  0
 25 26  1  0
 13 12  2  0
 16 11  2  0
  8  7  1  0
  8  9  1  0
  9 10  1  0
  2  1  1  0
  2  3  1  0
  4  3  1  0
  4  5  1  0
  7  6  1  0
  1  6  1  0
  5  6  1  0
 28 26  2  0
 28 29  1  0
 26 27  1  0
 24 23  1  0
 12 11  1  0
 12 14  1  0
 11 10  1  0
M  CHG  1   6   1
M  END
$$$$
