
     RDKit          3D

 31 34  0  0  0  0  0  0  0  0999 V2000
   40.9716   -1.3932  -36.0487 C   0  0  0  0  0  0  0  0  0  0  0  0
   40.5658   -1.4648  -37.4915 C   0  0  0  0  0  0  0  0  0  0  0  0
   41.4489   -0.7792  -38.2893 O   0  0  0  0  0  0  0  0  0  0  0  0
   42.1138    0.1769  -37.5625 C   0  0  0  0  0  0  0  0  0  0  0  0
   41.2441    0.8879  -36.5481 C   0  0  0  0  0  0  0  0  0  0  0  0
   40.8426   -0.0305  -35.5167 N   0  0  0  0  0  4  0  0  0  0  0  0
   39.4642    0.1230  -35.1264 C   0  0  0  0  0  0  0  0  0  0  0  0
   39.2576    0.8059  -33.8135 C   0  0  0  0  0  0  0  0  0  0  0  0
   38.0245    0.3306  -33.0736 C   0  0  0  0  0  0  0  0  0  0  0  0
   38.3683   -0.2906  -31.8503 O   0  0  0  0  0  0  0  0  0  0  0  0
   37.5274   -0.3169  -30.7724 C   0  0  0  0  0  0  0  0  0  0  0  0
   37.5671   -1.3413  -29.8631 C   0  0  0  0  0  0  0  0  0  0  0  0
   36.7395   -1.3912  -28.7779 C   0  0  0  0  0  0  0  0  0  0  0  0
   38.4981   -2.3414  -30.0946 O   0  0  0  0  0  0  0  0  0  0  0  0
   38.9100   -3.1545  -29.0132 C   0  0  0  0  0  0  0  0  0  0  0  0
   36.6029    0.7146  -30.5786 C   0  0  0  0  0  0  0  0  0  0  0  0
   35.7591    0.6804  -29.4886 C   0  0  0  0  0  0  0  0  0  0  0  0
   35.8301   -0.3855  -28.5792 C   0  0  0  0  0  0  0  0  0  0  0  0
   34.9872   -0.3757  -27.5314 N   0  0  0  0  0  0  0  0  0  0  0  0
   34.0951    0.6070  -27.3339 C   0  0  0  0  0  0  0  0  0  0  0  0
   34.0518    1.6092  -28.2196 N   0  0  0  0  0  0  0  0  0  0  0  0
   34.8493    1.6902  -29.2956 C   0  0  0  0  0  0  0  0  0  0  0  0
   34.7394    2.7502  -30.2129 N   0  0  0  0  0  0  0  0  0  0  0  0
   33.9276    3.8742  -29.8651 C   0  0  0  0  0  0  0  0  0  0  0  0
   33.9229    4.3317  -28.5811 C   0  0  0  0  0  0  0  0  0  0  0  0
   33.1158    5.4194  -28.2102 C   0  0  0  0  0  0  0  0  0  0  0  0
   33.1149    6.0031  -26.5472 Cl  0  0  0  0  0  0  0  0  0  0  0  0
   32.3126    6.0468  -29.1347 C   0  0  0  0  0  0  0  0  0  0  0  0
   31.5317    7.0863  -28.8090 F   0  0  0  0  0  0  0  0  0  0  0  0
   32.3299    5.5668  -30.4442 C   0  0  0  0  0  0  0  0  0  0  0  0
   33.1240    4.4995  -30.7998 C   0  0  0  0  0  0  0  0  0  0  0  0
 20 19  2  0
 20 21  1  0
 18 13  1  0
 18 17  2  0
 18 19  1  0
 17 16  1  0
 17 22  1  0
 22 21  2  0
 22 23  1  0
 15 14  1  0
 30 28  1  0
 30 31  2  0
 31 24  1  0
 25 24  2  0
 25 26  1  0
 13 12  2  0
 16 11  2  0
  8  7  1  0
  8  9  1  0
  9 10  1  0
  2  1  1  0
  2  3  1  0
  4  3  1  0
  4  5  1  0
  7  6  1  0
  1  6  1  0
  5  6  1  0
 28 26  2  0
 28 29  1  0
 26 27  1  0
 24 23  1  0
 12 11  1  0
 12 14  1  0
 11 10  1  0
M  CHG  1   6   1
M  END
$$$$
