
     RDKit          3D

 31 34  0  0  0  0  0  0  0  0999 V2000
   43.3331  -15.3189   -1.5698 C   0  0  0  0  0  0  0  0  0  0  0  0
   42.9799  -15.6016   -0.1391 C   0  0  0  0  0  0  0  0  0  0  0  0
   42.7581  -16.9421    0.0611 O   0  0  0  0  0  0  0  0  0  0  0  0
   42.4060  -17.5541   -1.1160 C   0  0  0  0  0  0  0  0  0  0  0  0
   41.4927  -16.7204   -1.9888 C   0  0  0  0  0  0  0  0  0  0  0  0
   42.1954  -15.5600   -2.4664 N   0  0  0  0  0  4  0  0  0  0  0  0
   41.3960  -14.3617   -2.4375 C   0  0  0  0  0  0  0  0  0  0  0  0
   40.2415  -14.3562   -3.3859 C   0  0  0  0  0  0  0  0  0  0  0  0
   40.1681  -13.1074   -4.2399 C   0  0  0  0  0  0  0  0  0  0  0  0
   40.6280  -13.3572   -5.5539 O   0  0  0  0  0  0  0  0  0  0  0  0
   39.7809  -13.5331   -6.6128 C   0  0  0  0  0  0  0  0  0  0  0  0
   39.5643  -12.5338   -7.5251 C   0  0  0  0  0  0  0  0  0  0  0  0
   38.7246  -12.6838   -8.5917 C   0  0  0  0  0  0  0  0  0  0  0  0
   40.2445  -11.3445   -7.3167 O   0  0  0  0  0  0  0  0  0  0  0  0
   40.1354  -10.3171   -8.2825 C   0  0  0  0  0  0  0  0  0  0  0  0
   39.1150  -14.7512   -6.7836 C   0  0  0  0  0  0  0  0  0  0  0  0
   38.2632  -14.9202   -7.8546 C   0  0  0  0  0  0  0  0  0  0  0  0
   38.0674  -13.8733   -8.7678 C   0  0  0  0  0  0  0  0  0  0  0  0
   37.2275  -14.0846   -9.7965 N   0  0  0  0  0  0  0  0  0  0  0  0
   36.5818  -15.2478   -9.9718 C   0  0  0  0  0  0  0  0  0  0  0  0
   36.7893  -16.2265   -9.0832 N   0  0  0  0  0  0  0  0  0  0  0  0
   37.6066  -16.1138   -8.0250 C   0  0  0  0  0  0  0  0  0  0  0  0
   37.7634  -17.1639   -7.1031 N   0  0  0  0  0  0  0  0  0  0  0  0
   37.2711  -18.4597   -7.4523 C   0  0  0  0  0  0  0  0  0  0  0  0
   37.4632  -18.9369   -8.7145 C   0  0  0  0  0  0  0  0  0  0  0  0
   36.9683  -20.1969   -9.0880 C   0  0  0  0  0  0  0  0  0  0  0  0
   37.2200  -20.8053  -10.7228 Cl  0  0  0  0  0  0  0  0  0  0  0  0
   36.2791  -20.9769   -8.1879 C   0  0  0  0  0  0  0  0  0  0  0  0
   35.7949  -22.1828   -8.5167 F   0  0  0  0  0  0  0  0  0  0  0  0
   36.0920  -20.4741   -6.9004 C   0  0  0  0  0  0  0  0  0  0  0  0
   36.5803  -19.2374   -6.5421 C   0  0  0  0  0  0  0  0  0  0  0  0
 20 19  2  0
 20 21  1  0
 18 13  1  0
 18 17  2  0
 18 19  1  0
 17 16  1  0
 17 22  1  0
 22 21  2  0
 22 23  1  0
 15 14  1  0
 30 28  1  0
 30 31  2  0
 31 24  1  0
 25 24  2  0
 25 26  1  0
 13 12  2  0
 16 11  2  0
  8  7  1  0
  8  9  1  0
  9 10  1  0
  2  1  1  0
  2  3  1  0
  4  3  1  0
  4  5  1  0
  7  6  1  0
  1  6  1  0
  5  6  1  0
 28 26  2  0
 28 29  1  0
 26 27  1  0
 24 23  1  0
 12 11  1  0
 12 14  1  0
 11 10  1  0
M  CHG  1   6   1
M  END
$$$$
