
     RDKit          3D

 31 34  0  0  0  0  0  0  0  0999 V2000
   44.7322  -13.3818   -1.6255 C   0  0  0  0  0  0  0  0  0  0  0  0
   45.9923  -12.9589   -2.3217 C   0  0  0  0  0  0  0  0  0  0  0  0
   46.4497  -11.7594   -1.8335 O   0  0  0  0  0  0  0  0  0  0  0  0
   45.4231  -11.0461   -1.2666 C   0  0  0  0  0  0  0  0  0  0  0  0
   44.1168  -11.1482   -2.0244 C   0  0  0  0  0  0  0  0  0  0  0  0
   43.6098  -12.4919   -1.9492 N   0  0  0  0  0  4  0  0  0  0  0  0
   43.0664  -12.9632   -3.1975 C   0  0  0  0  0  0  0  0  0  0  0  0
   42.0061  -14.0075   -3.0644 C   0  0  0  0  0  0  0  0  0  0  0  0
   41.4112  -14.4358   -4.3898 C   0  0  0  0  0  0  0  0  0  0  0  0
   40.6314  -13.4025   -4.9596 O   0  0  0  0  0  0  0  0  0  0  0  0
   39.8750  -13.5815   -6.0845 C   0  0  0  0  0  0  0  0  0  0  0  0
   39.6863  -12.5658   -6.9848 C   0  0  0  0  0  0  0  0  0  0  0  0
   38.9368  -12.7184   -8.1162 C   0  0  0  0  0  0  0  0  0  0  0  0
   40.2985  -11.3569   -6.6945 O   0  0  0  0  0  0  0  0  0  0  0  0
   39.8734  -10.1944   -7.3788 C   0  0  0  0  0  0  0  0  0  0  0  0
   39.2756  -14.8197   -6.3370 C   0  0  0  0  0  0  0  0  0  0  0  0
   38.5150  -14.9916   -7.4742 C   0  0  0  0  0  0  0  0  0  0  0  0
   38.3452  -13.9276   -8.3726 C   0  0  0  0  0  0  0  0  0  0  0  0
   37.5951  -14.1425   -9.4679 N   0  0  0  0  0  0  0  0  0  0  0  0
   37.0138  -15.3250   -9.7219 C   0  0  0  0  0  0  0  0  0  0  0  0
   37.1943  -16.3198   -8.8453 N   0  0  0  0  0  0  0  0  0  0  0  0
   37.9237  -16.2051   -7.7250 C   0  0  0  0  0  0  0  0  0  0  0  0
   38.0542  -17.2741   -6.8209 N   0  0  0  0  0  0  0  0  0  0  0  0
   37.5123  -18.5462   -7.1835 C   0  0  0  0  0  0  0  0  0  0  0  0
   37.5888  -18.9683   -8.4772 C   0  0  0  0  0  0  0  0  0  0  0  0
   37.0429  -20.2036   -8.8621 C   0  0  0  0  0  0  0  0  0  0  0  0
   37.1450  -20.7406  -10.5377 Cl  0  0  0  0  0  0  0  0  0  0  0  0
   36.4194  -21.0145   -7.9417 C   0  0  0  0  0  0  0  0  0  0  0  0
   35.8889  -22.1978   -8.2806 F   0  0  0  0  0  0  0  0  0  0  0  0
   36.3505  -20.5681   -6.6220 C   0  0  0  0  0  0  0  0  0  0  0  0
   36.8881  -19.3553   -6.2528 C   0  0  0  0  0  0  0  0  0  0  0  0
 20 19  2  0
 20 21  1  0
 18 13  1  0
 18 17  2  0
 18 19  1  0
 17 16  1  0
 17 22  1  0
 22 21  2  0
 22 23  1  0
 15 14  1  0
 30 28  1  0
 30 31  2  0
 31 24  1  0
 25 24  2  0
 25 26  1  0
 13 12  2  0
 16 11  2  0
  8  7  1  0
  8  9  1  0
  9 10  1  0
  2  1  1  0
  2  3  1  0
  4  3  1  0
  4  5  1  0
  7  6  1  0
  1  6  1  0
  5  6  1  0
 28 26  2  0
 28 29  1  0
 26 27  1  0
 24 23  1  0
 12 11  1  0
 12 14  1  0
 11 10  1  0
M  CHG  1   6   1
M  END
$$$$
