
     RDKit          3D

 31 34  0  0  0  0  0  0  0  0999 V2000
   44.1990  -14.6982   -1.1370 C   0  0  0  0  0  0  0  0  0  0  0  0
   44.6055  -13.2814   -0.8561 C   0  0  0  0  0  0  0  0  0  0  0  0
   44.0699  -12.8376    0.3282 O   0  0  0  0  0  0  0  0  0  0  0  0
   42.9464  -13.5578    0.6496 C   0  0  0  0  0  0  0  0  0  0  0  0
   42.0730  -13.8911   -0.5407 C   0  0  0  0  0  0  0  0  0  0  0  0
   42.7607  -14.8044   -1.4133 N   0  0  0  0  0  4  0  0  0  0  0  0
   42.5923  -14.4899   -2.8092 C   0  0  0  0  0  0  0  0  0  0  0  0
   41.4549  -15.1924   -3.4765 C   0  0  0  0  0  0  0  0  0  0  0  0
   40.3463  -14.2602   -3.9195 C   0  0  0  0  0  0  0  0  0  0  0  0
   40.6202  -13.7060   -5.1915 O   0  0  0  0  0  0  0  0  0  0  0  0
   39.7827  -13.8606   -6.2614 C   0  0  0  0  0  0  0  0  0  0  0  0
   39.5387  -12.8290   -7.1296 C   0  0  0  0  0  0  0  0  0  0  0  0
   38.7078  -12.9572   -8.2059 C   0  0  0  0  0  0  0  0  0  0  0  0
   40.1812  -11.6299   -6.8656 O   0  0  0  0  0  0  0  0  0  0  0  0
   40.0124  -10.5519   -7.7655 C   0  0  0  0  0  0  0  0  0  0  0  0
   39.1553  -15.0898   -6.4890 C   0  0  0  0  0  0  0  0  0  0  0  0
   38.3128  -15.2371   -7.5706 C   0  0  0  0  0  0  0  0  0  0  0  0
   38.0881  -14.1572   -8.4376 C   0  0  0  0  0  0  0  0  0  0  0  0
   37.2587  -14.3484   -9.4788 N   0  0  0  0  0  0  0  0  0  0  0  0
   36.6498  -15.5219   -9.7084 C   0  0  0  0  0  0  0  0  0  0  0  0
   36.8842  -16.5322   -8.8629 N   0  0  0  0  0  0  0  0  0  0  0  0
   37.6939  -16.4415   -7.7968 C   0  0  0  0  0  0  0  0  0  0  0  0
   37.8796  -17.5261   -6.9214 N   0  0  0  0  0  0  0  0  0  0  0  0
   37.3989  -18.8133   -7.3157 C   0  0  0  0  0  0  0  0  0  0  0  0
   37.5603  -19.2282   -8.6040 C   0  0  0  0  0  0  0  0  0  0  0  0
   37.0756  -20.4786   -9.0208 C   0  0  0  0  0  0  0  0  0  0  0  0
   37.2874  -21.0063  -10.6890 Cl  0  0  0  0  0  0  0  0  0  0  0  0
   36.4277  -21.3118   -8.1379 C   0  0  0  0  0  0  0  0  0  0  0  0
   35.9542  -22.5099   -8.5079 F   0  0  0  0  0  0  0  0  0  0  0  0
   36.2717  -20.8724   -6.8233 C   0  0  0  0  0  0  0  0  0  0  0  0
   36.7496  -19.6447   -6.4226 C   0  0  0  0  0  0  0  0  0  0  0  0
 20 19  2  0
 20 21  1  0
 18 13  1  0
 18 17  2  0
 18 19  1  0
 17 16  1  0
 17 22  1  0
 22 21  2  0
 22 23  1  0
 15 14  1  0
 30 28  1  0
 30 31  2  0
 31 24  1  0
 25 24  2  0
 25 26  1  0
 13 12  2  0
 16 11  2  0
  8  7  1  0
  8  9  1  0
  9 10  1  0
  2  1  1  0
  2  3  1  0
  4  3  1  0
  4  5  1  0
  7  6  1  0
  1  6  1  0
  5  6  1  0
 28 26  2  0
 28 29  1  0
 26 27  1  0
 24 23  1  0
 12 11  1  0
 12 14  1  0
 11 10  1  0
M  CHG  1   6   1
M  END
$$$$
