
     RDKit          3D

 31 34  0  0  0  0  0  0  0  0999 V2000
   42.8157  -12.5072   -0.9064 C   0  0  0  0  0  0  0  0  0  0  0  0
   41.9972  -12.7926    0.3184 C   0  0  0  0  0  0  0  0  0  0  0  0
   42.6645  -13.6327    1.1758 O   0  0  0  0  0  0  0  0  0  0  0  0
   43.5995  -14.3728    0.4960 C   0  0  0  0  0  0  0  0  0  0  0  0
   43.1376  -14.8357   -0.8691 C   0  0  0  0  0  0  0  0  0  0  0  0
   42.9758  -13.7042   -1.7419 N   0  0  0  0  0  4  0  0  0  0  0  0
   41.7945  -13.7861   -2.5627 C   0  0  0  0  0  0  0  0  0  0  0  0
   41.7258  -14.9917   -3.4426 C   0  0  0  0  0  0  0  0  0  0  0  0
   40.4805  -15.0403   -4.3034 C   0  0  0  0  0  0  0  0  0  0  0  0
   40.5808  -14.1535   -5.4006 O   0  0  0  0  0  0  0  0  0  0  0  0
   39.7345  -14.2059   -6.4734 C   0  0  0  0  0  0  0  0  0  0  0  0
   39.5070  -13.1039   -7.2554 C   0  0  0  0  0  0  0  0  0  0  0  0
   38.6680  -13.1296   -8.3326 C   0  0  0  0  0  0  0  0  0  0  0  0
   40.1755  -11.9427   -6.9016 O   0  0  0  0  0  0  0  0  0  0  0  0
   40.1704  -10.8509   -7.8007 C   0  0  0  0  0  0  0  0  0  0  0  0
   39.0808  -15.4003   -6.7934 C   0  0  0  0  0  0  0  0  0  0  0  0
   38.2297  -15.4444   -7.8773 C   0  0  0  0  0  0  0  0  0  0  0  0
   38.0226  -14.2948   -8.6544 C   0  0  0  0  0  0  0  0  0  0  0  0
   37.1838  -14.3861   -9.7016 N   0  0  0  0  0  0  0  0  0  0  0  0
   36.5497  -15.5252  -10.0193 C   0  0  0  0  0  0  0  0  0  0  0  0
   36.7679  -16.6039   -9.2582 N   0  0  0  0  0  0  0  0  0  0  0  0
   37.5849  -16.6144   -8.1940 C   0  0  0  0  0  0  0  0  0  0  0  0
   37.7531  -17.7686   -7.4086 N   0  0  0  0  0  0  0  0  0  0  0  0
   37.2406  -19.0098   -7.8986 C   0  0  0  0  0  0  0  0  0  0  0  0
   36.4178  -19.7582   -7.1107 C   0  0  0  0  0  0  0  0  0  0  0  0
   35.9207  -20.9920   -7.5609 C   0  0  0  0  0  0  0  0  0  0  0  0
   34.8587  -21.9539   -6.5347 Cl  0  0  0  0  0  0  0  0  0  0  0  0
   36.2532  -21.4718   -8.8070 C   0  0  0  0  0  0  0  0  0  0  0  0
   35.7943  -22.6460   -9.2625 F   0  0  0  0  0  0  0  0  0  0  0  0
   37.0953  -20.6932   -9.6009 C   0  0  0  0  0  0  0  0  0  0  0  0
   37.5788  -19.4846   -9.1519 C   0  0  0  0  0  0  0  0  0  0  0  0
 20 19  2  0
 20 21  1  0
 18 13  1  0
 18 17  2  0
 18 19  1  0
 17 16  1  0
 17 22  1  0
 22 21  2  0
 22 23  1  0
 15 14  1  0
 30 28  1  0
 30 31  2  0
 31 24  1  0
 25 24  2  0
 25 26  1  0
 13 12  2  0
 16 11  2  0
  8  7  1  0
  8  9  1  0
  9 10  1  0
  2  1  1  0
  2  3  1  0
  4  3  1  0
  4  5  1  0
  7  6  1  0
  1  6  1  0
  5  6  1  0
 28 26  2  0
 28 29  1  0
 26 27  1  0
 24 23  1  0
 12 11  1  0
 12 14  1  0
 11 10  1  0
M  CHG  1   6   1
M  END
$$$$
