
     RDKit          3D

 31 34  0  0  0  0  0  0  0  0999 V2000
   40.7147    1.6369  -36.5734 C   0  0  0  0  0  0  0  0  0  0  0  0
   41.7126    0.5519  -36.8536 C   0  0  0  0  0  0  0  0  0  0  0  0
   41.4998   -0.0104  -38.0884 O   0  0  0  0  0  0  0  0  0  0  0  0
   40.1983    0.1730  -38.4843 C   0  0  0  0  0  0  0  0  0  0  0  0
   39.1923    0.0288  -37.3627 C   0  0  0  0  0  0  0  0  0  0  0  0
   39.3582    1.0975  -36.4146 N   0  0  0  0  0  4  0  0  0  0  0  0
   39.2537    0.6614  -35.0453 C   0  0  0  0  0  0  0  0  0  0  0  0
   38.3611    1.4988  -34.1881 C   0  0  0  0  0  0  0  0  0  0  0  0
   38.6582    1.3768  -32.7079 C   0  0  0  0  0  0  0  0  0  0  0  0
   38.3230    0.0915  -32.2220 O   0  0  0  0  0  0  0  0  0  0  0  0
   37.5302   -0.1006  -31.1245 C   0  0  0  0  0  0  0  0  0  0  0  0
   37.6996   -1.1855  -30.3048 C   0  0  0  0  0  0  0  0  0  0  0  0
   36.9225   -1.4001  -29.2024 C   0  0  0  0  0  0  0  0  0  0  0  0
   38.7096   -2.0706  -30.6467 O   0  0  0  0  0  0  0  0  0  0  0  0
   38.9484   -3.1889  -29.8144 C   0  0  0  0  0  0  0  0  0  0  0  0
   36.5223    0.8194  -30.8177 C   0  0  0  0  0  0  0  0  0  0  0  0
   35.7279    0.6183  -29.7088 C   0  0  0  0  0  0  0  0  0  0  0  0
   35.9322   -0.5048  -28.8933 C   0  0  0  0  0  0  0  0  0  0  0  0
   35.1330   -0.6587  -27.8228 N   0  0  0  0  0  0  0  0  0  0  0  0
   34.1620    0.2156  -27.5173 C   0  0  0  0  0  0  0  0  0  0  0  0
   33.9920    1.2762  -28.3153 N   0  0  0  0  0  0  0  0  0  0  0  0
   34.7365    1.5182  -29.4050 C   0  0  0  0  0  0  0  0  0  0  0  0
   34.4938    2.6323  -30.2277 N   0  0  0  0  0  0  0  0  0  0  0  0
   33.4925    3.5715  -29.8291 C   0  0  0  0  0  0  0  0  0  0  0  0
   33.4599    4.0172  -28.5413 C   0  0  0  0  0  0  0  0  0  0  0  0
   32.4717    4.9217  -28.1203 C   0  0  0  0  0  0  0  0  0  0  0  0
   32.4361    5.4913  -26.4528 Cl  0  0  0  0  0  0  0  0  0  0  0  0
   31.5154    5.3778  -28.9984 C   0  0  0  0  0  0  0  0  0  0  0  0
   30.5602    6.2404  -28.6242 F   0  0  0  0  0  0  0  0  0  0  0  0
   31.5637    4.9126  -30.3124 C   0  0  0  0  0  0  0  0  0  0  0  0
   32.5359    4.0254  -30.7174 C   0  0  0  0  0  0  0  0  0  0  0  0
 20 19  2  0
 20 21  1  0
 18 13  1  0
 18 17  2  0
 18 19  1  0
 17 16  1  0
 17 22  1  0
 22 21  2  0
 22 23  1  0
 15 14  1  0
 30 28  1  0
 30 31  2  0
 31 24  1  0
 25 24  2  0
 25 26  1  0
 13 12  2  0
 16 11  2  0
  8  7  1  0
  8  9  1  0
  9 10  1  0
  2  1  1  0
  2  3  1  0
  4  3  1  0
  4  5  1  0
  7  6  1  0
  1  6  1  0
  5  6  1  0
 28 26  2  0
 28 29  1  0
 26 27  1  0
 24 23  1  0
 12 11  1  0
 12 14  1  0
 11 10  1  0
M  CHG  1   6   1
M  END
$$$$
