
     RDKit          3D

 31 34  0  0  0  0  0  0  0  0999 V2000
    7.4873    5.4182   10.3187 C   0  0  0  0  0  0  0  0  0  0  0  0
    8.3963    6.5721   10.6247 C   0  0  0  0  0  0  0  0  0  0  0  0
    7.8903    7.7475   10.1261 O   0  0  0  0  0  0  0  0  0  0  0  0
    7.0296    7.4996    9.0860 C   0  0  0  0  0  0  0  0  0  0  0  0
    7.4807    6.3795    8.1734 C   0  0  0  0  0  0  0  0  0  0  0  0
    7.4468    5.1273    8.8799 N   0  0  0  0  0  4  0  0  0  0  0  0
    8.5862    4.2899    8.6039 C   0  0  0  0  0  0  0  0  0  0  0  0
    8.2707    2.8394    8.4338 C   0  0  0  0  0  0  0  0  0  0  0  0
    9.4680    1.9338    8.6348 C   0  0  0  0  0  0  0  0  0  0  0  0
   10.5149    2.2624    7.7423 O   0  0  0  0  0  0  0  0  0  0  0  0
   11.4998    1.3778    7.4001 C   0  0  0  0  0  0  0  0  0  0  0  0
   12.8076    1.7735    7.2958 C   0  0  0  0  0  0  0  0  0  0  0  0
   13.8102    0.9103    6.9568 C   0  0  0  0  0  0  0  0  0  0  0  0
   13.0748    3.1087    7.5533 O   0  0  0  0  0  0  0  0  0  0  0  0
   14.3949    3.5864    7.3815 C   0  0  0  0  0  0  0  0  0  0  0  0
   11.1836    0.0387    7.1488 C   0  0  0  0  0  0  0  0  0  0  0  0
   12.1831   -0.8467    6.8049 C   0  0  0  0  0  0  0  0  0  0  0  0
   13.5107   -0.4036    6.7086 C   0  0  0  0  0  0  0  0  0  0  0  0
   14.4512   -1.3034    6.3702 N   0  0  0  0  0  0  0  0  0  0  0  0
   14.1616   -2.5906    6.1258 C   0  0  0  0  0  0  0  0  0  0  0  0
   12.8858   -2.9818    6.2255 N   0  0  0  0  0  0  0  0  0  0  0  0
   11.8767   -2.1616    6.5561 C   0  0  0  0  0  0  0  0  0  0  0  0
   10.5482   -2.6186    6.6149 N   0  0  0  0  0  0  0  0  0  0  0  0
   10.3114   -4.0271    6.6726 C   0  0  0  0  0  0  0  0  0  0  0  0
   11.2138   -4.8381    7.2939 C   0  0  0  0  0  0  0  0  0  0  0  0
   11.0148   -6.2274    7.3430 C   0  0  0  0  0  0  0  0  0  0  0  0
   12.1877   -7.2685    8.1471 Cl  0  0  0  0  0  0  0  0  0  0  0  0
    9.9047   -6.7998    6.7654 C   0  0  0  0  0  0  0  0  0  0  0  0
    9.6894   -8.1224    6.7962 F   0  0  0  0  0  0  0  0  0  0  0  0
    8.9909   -5.9557    6.1346 C   0  0  0  0  0  0  0  0  0  0  0  0
    9.1935   -4.5944    6.0905 C   0  0  0  0  0  0  0  0  0  0  0  0
 20 19  2  0
 20 21  1  0
 18 13  1  0
 18 17  2  0
 18 19  1  0
 17 16  1  0
 17 22  1  0
 22 21  2  0
 22 23  1  0
 15 14  1  0
 30 28  1  0
 30 31  2  0
 31 24  1  0
 25 24  2  0
 25 26  1  0
 13 12  2  0
 16 11  2  0
  8  7  1  0
  8  9  1  0
  9 10  1  0
  2  1  1  0
  2  3  1  0
  4  3  1  0
  4  5  1  0
  7  6  1  0
  1  6  1  0
  5  6  1  0
 28 26  2  0
 28 29  1  0
 26 27  1  0
 24 23  1  0
 12 11  1  0
 12 14  1  0
 11 10  1  0
M  CHG  1   6   1
M  END
$$$$
