
     RDKit          3D

 31 34  0  0  0  0  0  0  0  0999 V2000
    5.5441    4.6438    7.5598 C   0  0  0  0  0  0  0  0  0  0  0  0
    4.4041    4.0682    8.3477 C   0  0  0  0  0  0  0  0  0  0  0  0
    4.0964    4.8614    9.4259 O   0  0  0  0  0  0  0  0  0  0  0  0
    5.1787    5.6238    9.7886 C   0  0  0  0  0  0  0  0  0  0  0  0
    6.5007    4.8928    9.6928 C   0  0  0  0  0  0  0  0  0  0  0  0
    6.8016    4.6017    8.3169 N   0  0  0  0  0  4  0  0  0  0  0  0
    7.3469    3.2823    8.1231 C   0  0  0  0  0  0  0  0  0  0  0  0
    8.7684    3.1226    8.5552 C   0  0  0  0  0  0  0  0  0  0  0  0
    9.6088    2.3229    7.5814 C   0  0  0  0  0  0  0  0  0  0  0  0
   10.9805    2.3797    7.9213 O   0  0  0  0  0  0  0  0  0  0  0  0
   11.8883    1.4527    7.4896 C   0  0  0  0  0  0  0  0  0  0  0  0
   13.1958    1.7908    7.2572 C   0  0  0  0  0  0  0  0  0  0  0  0
   14.1223    0.8844    6.8271 C   0  0  0  0  0  0  0  0  0  0  0  0
   13.5444    3.1132    7.4810 O   0  0  0  0  0  0  0  0  0  0  0  0
   14.9148    3.4612    7.5190 C   0  0  0  0  0  0  0  0  0  0  0  0
   11.4914    0.1285    7.2769 C   0  0  0  0  0  0  0  0  0  0  0  0
   12.4135   -0.7999    6.8422 C   0  0  0  0  0  0  0  0  0  0  0  0
   13.7435   -0.4154    6.6155 C   0  0  0  0  0  0  0  0  0  0  0  0
   14.6068   -1.3556    6.1922 N   0  0  0  0  0  0  0  0  0  0  0  0
   14.2393   -2.6291    5.9834 C   0  0  0  0  0  0  0  0  0  0  0  0
   12.9634   -2.9641    6.2080 N   0  0  0  0  0  0  0  0  0  0  0  0
   12.0276   -2.1005    6.6308 C   0  0  0  0  0  0  0  0  0  0  0  0
   10.6925   -2.4989    6.8201 N   0  0  0  0  0  0  0  0  0  0  0  0
   10.3849   -3.8946    6.7927 C   0  0  0  0  0  0  0  0  0  0  0  0
   11.2031   -4.7785    7.4308 C   0  0  0  0  0  0  0  0  0  0  0  0
   10.9347   -6.1566    7.3982 C   0  0  0  0  0  0  0  0  0  0  0  0
   11.9992   -7.2924    8.2247 Cl  0  0  0  0  0  0  0  0  0  0  0  0
    9.8401   -6.6441    6.7217 C   0  0  0  0  0  0  0  0  0  0  0  0
    9.5598   -7.9540    6.6731 F   0  0  0  0  0  0  0  0  0  0  0  0
    9.0127   -5.7262    6.0750 C   0  0  0  0  0  0  0  0  0  0  0  0
    9.2830   -4.3764    6.1116 C   0  0  0  0  0  0  0  0  0  0  0  0
 20 19  2  0
 20 21  1  0
 18 13  1  0
 18 17  2  0
 18 19  1  0
 17 16  1  0
 17 22  1  0
 22 21  2  0
 22 23  1  0
 15 14  1  0
 30 28  1  0
 30 31  2  0
 31 24  1  0
 25 24  2  0
 25 26  1  0
 13 12  2  0
 16 11  2  0
  8  7  1  0
  8  9  1  0
  9 10  1  0
  2  1  1  0
  2  3  1  0
  4  3  1  0
  4  5  1  0
  7  6  1  0
  1  6  1  0
  5  6  1  0
 28 26  2  0
 28 29  1  0
 26 27  1  0
 24 23  1  0
 12 11  1  0
 12 14  1  0
 11 10  1  0
M  CHG  1   6   1
M  END
$$$$
