
     RDKit          3D

 31 34  0  0  0  0  0  0  0  0999 V2000
    6.8750    4.7426   10.4070 C   0  0  0  0  0  0  0  0  0  0  0  0
    7.3610    6.0456   10.9703 C   0  0  0  0  0  0  0  0  0  0  0  0
    6.5194    7.0767   10.6315 O   0  0  0  0  0  0  0  0  0  0  0  0
    5.8088    6.7673    9.4986 C   0  0  0  0  0  0  0  0  0  0  0  0
    6.6160    6.0260    8.4545 C   0  0  0  0  0  0  0  0  0  0  0  0
    6.9652    4.7186    8.9416 N   0  0  0  0  0  4  0  0  0  0  0  0
    8.3187    4.3391    8.6253 C   0  0  0  0  0  0  0  0  0  0  0  0
    8.5034    2.8927    8.2992 C   0  0  0  0  0  0  0  0  0  0  0  0
    9.8493    2.3449    8.7263 C   0  0  0  0  0  0  0  0  0  0  0  0
   10.8179    2.5148    7.7098 O   0  0  0  0  0  0  0  0  0  0  0  0
   11.7549    1.5636    7.4148 C   0  0  0  0  0  0  0  0  0  0  0  0
   13.0753    1.8913    7.2509 C   0  0  0  0  0  0  0  0  0  0  0  0
   14.0309    0.9609    6.9571 C   0  0  0  0  0  0  0  0  0  0  0  0
   13.4061    3.2289    7.3985 O   0  0  0  0  0  0  0  0  0  0  0  0
   14.7540    3.5753    7.6503 C   0  0  0  0  0  0  0  0  0  0  0  0
   11.3752    0.2247    7.2748 C   0  0  0  0  0  0  0  0  0  0  0  0
   12.3266   -0.7281    6.9779 C   0  0  0  0  0  0  0  0  0  0  0  0
   13.6691   -0.3534    6.8177 C   0  0  0  0  0  0  0  0  0  0  0  0
   14.5611   -1.3174    6.5288 N   0  0  0  0  0  0  0  0  0  0  0  0
   14.2104   -2.6053    6.3910 C   0  0  0  0  0  0  0  0  0  0  0  0
   12.9220   -2.9303    6.5493 N   0  0  0  0  0  0  0  0  0  0  0  0
   11.9578   -2.0431    6.8383 C   0  0  0  0  0  0  0  0  0  0  0  0
   10.6129   -2.4344    6.9620 N   0  0  0  0  0  0  0  0  0  0  0  0
   10.3088   -3.8303    7.0135 C   0  0  0  0  0  0  0  0  0  0  0  0
   11.3108   -4.7322    7.2142 C   0  0  0  0  0  0  0  0  0  0  0  0
   11.0402   -6.1098    7.2451 C   0  0  0  0  0  0  0  0  0  0  0  0
   12.3424   -7.2690    7.5035 Cl  0  0  0  0  0  0  0  0  0  0  0  0
    9.7579   -6.5788    7.0738 C   0  0  0  0  0  0  0  0  0  0  0  0
    9.4705   -7.8878    7.0978 F   0  0  0  0  0  0  0  0  0  0  0  0
    8.7442   -5.6426    6.8704 C   0  0  0  0  0  0  0  0  0  0  0  0
    9.0179   -4.2933    6.8411 C   0  0  0  0  0  0  0  0  0  0  0  0
 20 19  2  0
 20 21  1  0
 18 13  1  0
 18 17  2  0
 18 19  1  0
 17 16  1  0
 17 22  1  0
 22 21  2  0
 22 23  1  0
 15 14  1  0
 30 28  1  0
 30 31  2  0
 31 24  1  0
 25 24  2  0
 25 26  1  0
 13 12  2  0
 16 11  2  0
  8  7  1  0
  8  9  1  0
  9 10  1  0
  2  1  1  0
  2  3  1  0
  4  3  1  0
  4  5  1  0
  7  6  1  0
  1  6  1  0
  5  6  1  0
 28 26  2  0
 28 29  1  0
 26 27  1  0
 24 23  1  0
 12 11  1  0
 12 14  1  0
 11 10  1  0
M  CHG  1   6   1
M  END
$$$$
