
     RDKit          3D

 31 34  0  0  0  0  0  0  0  0999 V2000
    6.4808    3.8621   10.8073 C   0  0  0  0  0  0  0  0  0  0  0  0
    6.5841    5.1185   11.6211 C   0  0  0  0  0  0  0  0  0  0  0  0
    5.6544    6.0465   11.2201 O   0  0  0  0  0  0  0  0  0  0  0  0
    5.2691    5.8144    9.9233 C   0  0  0  0  0  0  0  0  0  0  0  0
    6.4022    5.3837    9.0170 C   0  0  0  0  0  0  0  0  0  0  0  0
    6.8802    4.0861    9.4120 N   0  0  0  0  0  4  0  0  0  0  0  0
    8.3164    3.9772    9.3795 C   0  0  0  0  0  0  0  0  0  0  0  0
    8.8799    3.5152    8.0750 C   0  0  0  0  0  0  0  0  0  0  0  0
    9.6327    2.2046    8.1732 C   0  0  0  0  0  0  0  0  0  0  0  0
   11.0309    2.4111    8.1187 O   0  0  0  0  0  0  0  0  0  0  0  0
   11.9075    1.4375    7.7269 C   0  0  0  0  0  0  0  0  0  0  0  0
   13.2262    1.7215    7.4864 C   0  0  0  0  0  0  0  0  0  0  0  0
   14.1223    0.7680    7.0955 C   0  0  0  0  0  0  0  0  0  0  0  0
   13.6194    3.0391    7.6598 O   0  0  0  0  0  0  0  0  0  0  0  0
   14.9834    3.3726    7.4909 C   0  0  0  0  0  0  0  0  0  0  0  0
   11.4660    0.1203    7.5645 C   0  0  0  0  0  0  0  0  0  0  0  0
   12.3568   -0.8553    7.1698 C   0  0  0  0  0  0  0  0  0  0  0  0
   13.6998   -0.5254    6.9333 C   0  0  0  0  0  0  0  0  0  0  0  0
   14.5315   -1.5103    6.5502 N   0  0  0  0  0  0  0  0  0  0  0  0
   14.1211   -2.7778    6.3899 C   0  0  0  0  0  0  0  0  0  0  0  0
   12.8339   -3.0601    6.6226 N   0  0  0  0  0  0  0  0  0  0  0  0
   11.9272   -2.1492    7.0078 C   0  0  0  0  0  0  0  0  0  0  0  0
   10.5788   -2.4942    7.2076 N   0  0  0  0  0  0  0  0  0  0  0  0
   10.2039   -3.8704    7.1139 C   0  0  0  0  0  0  0  0  0  0  0  0
   10.9953   -4.8253    7.6793 C   0  0  0  0  0  0  0  0  0  0  0  0
   10.6603   -6.1855    7.5802 C   0  0  0  0  0  0  0  0  0  0  0  0
   11.6904   -7.4135    8.3131 Cl  0  0  0  0  0  0  0  0  0  0  0  0
    9.5260   -6.5835    6.9105 C   0  0  0  0  0  0  0  0  0  0  0  0
    9.1820   -7.8742    6.7994 F   0  0  0  0  0  0  0  0  0  0  0  0
    8.7269   -5.5937    6.3385 C   0  0  0  0  0  0  0  0  0  0  0  0
    9.0625   -4.2621    6.4399 C   0  0  0  0  0  0  0  0  0  0  0  0
 20 19  2  0
 20 21  1  0
 18 13  1  0
 18 17  2  0
 18 19  1  0
 17 16  1  0
 17 22  1  0
 22 21  2  0
 22 23  1  0
 15 14  1  0
 30 28  1  0
 30 31  2  0
 31 24  1  0
 25 24  2  0
 25 26  1  0
 13 12  2  0
 16 11  2  0
  8  7  1  0
  8  9  1  0
  9 10  1  0
  2  1  1  0
  2  3  1  0
  4  3  1  0
  4  5  1  0
  7  6  1  0
  1  6  1  0
  5  6  1  0
 28 26  2  0
 28 29  1  0
 26 27  1  0
 24 23  1  0
 12 11  1  0
 12 14  1  0
 11 10  1  0
M  CHG  1   6   1
M  END
$$$$
