
     RDKit          3D

 31 34  0  0  0  0  0  0  0  0999 V2000
    7.1045    6.1105    9.4571 C   0  0  0  0  0  0  0  0  0  0  0  0
    6.1079    6.3755    8.3671 C   0  0  0  0  0  0  0  0  0  0  0  0
    4.8287    6.1080    8.7894 O   0  0  0  0  0  0  0  0  0  0  0  0
    4.8415    5.2168    9.8332 C   0  0  0  0  0  0  0  0  0  0  0  0
    5.8747    4.1203    9.6878 C   0  0  0  0  0  0  0  0  0  0  0  0
    7.1975    4.6788    9.7697 N   0  0  0  0  0  4  0  0  0  0  0  0
    8.1116    4.1134    8.8102 C   0  0  0  0  0  0  0  0  0  0  0  0
    8.3797    2.6539    8.9854 C   0  0  0  0  0  0  0  0  0  0  0  0
    9.3485    2.0917    7.9659 C   0  0  0  0  0  0  0  0  0  0  0  0
   10.6618    2.0289    8.4870 O   0  0  0  0  0  0  0  0  0  0  0  0
   11.5900    1.1269    8.0457 C   0  0  0  0  0  0  0  0  0  0  0  0
   12.9092    1.4716    7.9094 C   0  0  0  0  0  0  0  0  0  0  0  0
   13.8562    0.5900    7.4721 C   0  0  0  0  0  0  0  0  0  0  0  0
   13.2481    2.7741    8.2398 O   0  0  0  0  0  0  0  0  0  0  0  0
   14.5944    3.1852    8.1026 C   0  0  0  0  0  0  0  0  0  0  0  0
   11.2023   -0.1778    7.7235 C   0  0  0  0  0  0  0  0  0  0  0  0
   12.1450   -1.0810    7.2799 C   0  0  0  0  0  0  0  0  0  0  0  0
   13.4865   -0.6905    7.1537 C   0  0  0  0  0  0  0  0  0  0  0  0
   14.3698   -1.6059    6.7174 N   0  0  0  0  0  0  0  0  0  0  0  0
   14.0114   -2.8605    6.4041 C   0  0  0  0  0  0  0  0  0  0  0  0
   12.7241   -3.2017    6.5347 N   0  0  0  0  0  0  0  0  0  0  0  0
   11.7683   -2.3622    6.9613 C   0  0  0  0  0  0  0  0  0  0  0  0
   10.4237   -2.7641    7.0491 N   0  0  0  0  0  0  0  0  0  0  0  0
   10.1273   -4.1625    7.0613 C   0  0  0  0  0  0  0  0  0  0  0  0
   10.9542   -5.0217    7.7215 C   0  0  0  0  0  0  0  0  0  0  0  0
   10.6968   -6.4022    7.7278 C   0  0  0  0  0  0  0  0  0  0  0  0
   11.7724   -7.5061    8.5826 Cl  0  0  0  0  0  0  0  0  0  0  0  0
    9.6044   -6.9171    7.0682 C   0  0  0  0  0  0  0  0  0  0  0  0
    9.3346   -8.2300    7.0567 F   0  0  0  0  0  0  0  0  0  0  0  0
    8.7680   -6.0241    6.3985 C   0  0  0  0  0  0  0  0  0  0  0  0
    9.0275   -4.6717    6.3968 C   0  0  0  0  0  0  0  0  0  0  0  0
 20 19  2  0
 20 21  1  0
 18 13  1  0
 18 17  2  0
 18 19  1  0
 17 16  1  0
 17 22  1  0
 22 21  2  0
 22 23  1  0
 15 14  1  0
 30 28  1  0
 30 31  2  0
 31 24  1  0
 25 24  2  0
 25 26  1  0
 13 12  2  0
 16 11  2  0
  8  7  1  0
  8  9  1  0
  9 10  1  0
  2  1  1  0
  2  3  1  0
  4  3  1  0
  4  5  1  0
  7  6  1  0
  1  6  1  0
  5  6  1  0
 28 26  2  0
 28 29  1  0
 26 27  1  0
 24 23  1  0
 12 11  1  0
 12 14  1  0
 11 10  1  0
M  CHG  1   6   1
M  END
$$$$
