
     RDKit          3D

 31 34  0  0  0  0  0  0  0  0999 V2000
    6.4675    4.7942   10.7826 C   0  0  0  0  0  0  0  0  0  0  0  0
    7.2033    6.0664   11.0850 C   0  0  0  0  0  0  0  0  0  0  0  0
    6.7806    7.0889   10.2711 O   0  0  0  0  0  0  0  0  0  0  0  0
    6.2322    6.5907    9.1156 C   0  0  0  0  0  0  0  0  0  0  0  0
    6.9631    5.3864    8.5621 C   0  0  0  0  0  0  0  0  0  0  0  0
    6.8154    4.2694    9.4560 N   0  0  0  0  0  4  0  0  0  0  0  0
    8.0308    3.5145    9.6251 C   0  0  0  0  0  0  0  0  0  0  0  0
    8.9415    3.5203    8.4405 C   0  0  0  0  0  0  0  0  0  0  0  0
    9.5686    2.1715    8.1549 C   0  0  0  0  0  0  0  0  0  0  0  0
   10.9009    2.1154    8.6265 O   0  0  0  0  0  0  0  0  0  0  0  0
   11.8273    1.2444    8.1234 C   0  0  0  0  0  0  0  0  0  0  0  0
   13.1206    1.6347    7.8938 C   0  0  0  0  0  0  0  0  0  0  0  0
   14.0652    0.7848    7.3933 C   0  0  0  0  0  0  0  0  0  0  0  0
   13.4354    2.9500    8.1961 O   0  0  0  0  0  0  0  0  0  0  0  0
   14.7620    3.3979    7.9965 C   0  0  0  0  0  0  0  0  0  0  0  0
   11.4645   -0.0747    7.8327 C   0  0  0  0  0  0  0  0  0  0  0  0
   12.4052   -0.9465    7.3264 C   0  0  0  0  0  0  0  0  0  0  0  0
   13.7198   -0.5096    7.1051 C   0  0  0  0  0  0  0  0  0  0  0  0
   14.6023   -1.3955    6.6102 N   0  0  0  0  0  0  0  0  0  0  0  0
   14.2675   -2.6636    6.3262 C   0  0  0  0  0  0  0  0  0  0  0  0
   13.0055   -3.0493    6.5479 N   0  0  0  0  0  0  0  0  0  0  0  0
   12.0528   -2.2418    7.0384 C   0  0  0  0  0  0  0  0  0  0  0  0
   10.7328   -2.6903    7.2217 N   0  0  0  0  0  0  0  0  0  0  0  0
   10.4576   -4.0852    7.0730 C   0  0  0  0  0  0  0  0  0  0  0  0
   11.2675   -5.0007    7.6762 C   0  0  0  0  0  0  0  0  0  0  0  0
   11.0313   -6.3768    7.5254 C   0  0  0  0  0  0  0  0  0  0  0  0
   12.0848   -7.5535    8.3076 Cl  0  0  0  0  0  0  0  0  0  0  0  0
    9.9773   -6.8304    6.7659 C   0  0  0  0  0  0  0  0  0  0  0  0
    9.7284   -8.1375    6.6040 F   0  0  0  0  0  0  0  0  0  0  0  0
    9.1579   -5.8805    6.1564 C   0  0  0  0  0  0  0  0  0  0  0  0
    9.3964   -4.5329    6.3090 C   0  0  0  0  0  0  0  0  0  0  0  0
 20 19  2  0
 20 21  1  0
 18 13  1  0
 18 17  2  0
 18 19  1  0
 17 16  1  0
 17 22  1  0
 22 21  2  0
 22 23  1  0
 15 14  1  0
 30 28  1  0
 30 31  2  0
 31 24  1  0
 25 24  2  0
 25 26  1  0
 13 12  2  0
 16 11  2  0
  8  7  1  0
  8  9  1  0
  9 10  1  0
  2  1  1  0
  2  3  1  0
  4  3  1  0
  4  5  1  0
  7  6  1  0
  1  6  1  0
  5  6  1  0
 28 26  2  0
 28 29  1  0
 26 27  1  0
 24 23  1  0
 12 11  1  0
 12 14  1  0
 11 10  1  0
M  CHG  1   6   1
M  END
$$$$
