
     RDKit          3D

 31 34  0  0  0  0  0  0  0  0999 V2000
    8.0220    6.4982   10.1601 C   0  0  0  0  0  0  0  0  0  0  0  0
    7.2942    7.3522    9.1639 C   0  0  0  0  0  0  0  0  0  0  0  0
    5.9394    7.3302    9.3884 O   0  0  0  0  0  0  0  0  0  0  0  0
    5.5810    6.1918   10.0664 C   0  0  0  0  0  0  0  0  0  0  0  0
    6.3321    4.9546    9.6233 C   0  0  0  0  0  0  0  0  0  0  0  0
    7.7220    5.0729    9.9735 N   0  0  0  0  0  4  0  0  0  0  0  0
    8.6088    4.6045    8.9390 C   0  0  0  0  0  0  0  0  0  0  0  0
    8.5833    3.1276    8.7138 C   0  0  0  0  0  0  0  0  0  0  0  0
    9.7092    2.6325    7.8300 C   0  0  0  0  0  0  0  0  0  0  0  0
   10.8343    2.2518    8.5981 O   0  0  0  0  0  0  0  0  0  0  0  0
   11.7842    1.3826    8.1376 C   0  0  0  0  0  0  0  0  0  0  0  0
   13.0959    1.7600    8.0168 C   0  0  0  0  0  0  0  0  0  0  0  0
   14.0641    0.9116    7.5608 C   0  0  0  0  0  0  0  0  0  0  0  0
   13.4043    3.0604    8.3831 O   0  0  0  0  0  0  0  0  0  0  0  0
   14.7636    3.4305    8.5086 C   0  0  0  0  0  0  0  0  0  0  0  0
   11.4270    0.0787    7.7791 C   0  0  0  0  0  0  0  0  0  0  0  0
   12.3914   -0.7913    7.3163 C   0  0  0  0  0  0  0  0  0  0  0  0
   13.7244   -0.3679    7.2069 C   0  0  0  0  0  0  0  0  0  0  0  0
   14.6297   -1.2516    6.7507 N   0  0  0  0  0  0  0  0  0  0  0  0
   14.3007   -2.5051    6.4026 C   0  0  0  0  0  0  0  0  0  0  0  0
   13.0208   -2.8781    6.5180 N   0  0  0  0  0  0  0  0  0  0  0  0
   12.0447   -2.0716    6.9620 C   0  0  0  0  0  0  0  0  0  0  0  0
   10.7090   -2.5054    7.0328 N   0  0  0  0  0  0  0  0  0  0  0  0
   10.4401   -3.9071    6.9533 C   0  0  0  0  0  0  0  0  0  0  0  0
   11.2699   -4.7899    7.5778 C   0  0  0  0  0  0  0  0  0  0  0  0
   11.0398   -6.1727    7.4944 C   0  0  0  0  0  0  0  0  0  0  0  0
   12.1190   -7.3069    8.3038 Cl  0  0  0  0  0  0  0  0  0  0  0  0
    9.9717   -6.6662    6.7808 C   0  0  0  0  0  0  0  0  0  0  0  0
    9.7281   -7.9806    6.6834 F   0  0  0  0  0  0  0  0  0  0  0  0
    9.1319   -5.7493    6.1486 C   0  0  0  0  0  0  0  0  0  0  0  0
    9.3647   -4.3949    6.2350 C   0  0  0  0  0  0  0  0  0  0  0  0
 20 19  2  0
 20 21  1  0
 18 13  1  0
 18 17  2  0
 18 19  1  0
 17 16  1  0
 17 22  1  0
 22 21  2  0
 22 23  1  0
 15 14  1  0
 30 28  1  0
 30 31  2  0
 31 24  1  0
 25 24  2  0
 25 26  1  0
 13 12  2  0
 16 11  2  0
  8  7  1  0
  8  9  1  0
  9 10  1  0
  2  1  1  0
  2  3  1  0
  4  3  1  0
  4  5  1  0
  7  6  1  0
  1  6  1  0
  5  6  1  0
 28 26  2  0
 28 29  1  0
 26 27  1  0
 24 23  1  0
 12 11  1  0
 12 14  1  0
 11 10  1  0
M  CHG  1   6   1
M  END
$$$$
