
     RDKit          3D

 31 34  0  0  0  0  0  0  0  0999 V2000
    6.9482    5.8418    9.6122 C   0  0  0  0  0  0  0  0  0  0  0  0
    7.3384    7.1356    8.9600 C   0  0  0  0  0  0  0  0  0  0  0  0
    6.3800    7.5497    8.0676 O   0  0  0  0  0  0  0  0  0  0  0  0
    5.6334    6.4834    7.6320 C   0  0  0  0  0  0  0  0  0  0  0  0
    6.4421    5.2250    7.4008 C   0  0  0  0  0  0  0  0  0  0  0  0
    6.9480    4.7301    8.6529 N   0  0  0  0  0  4  0  0  0  0  0  0
    8.3095    4.2662    8.5703 C   0  0  0  0  0  0  0  0  0  0  0  0
    8.5109    2.8411    8.9717 C   0  0  0  0  0  0  0  0  0  0  0  0
    9.3781    2.0592    8.0069 C   0  0  0  0  0  0  0  0  0  0  0  0
   10.7498    2.1980    8.3226 O   0  0  0  0  0  0  0  0  0  0  0  0
   11.6998    1.3111    7.8974 C   0  0  0  0  0  0  0  0  0  0  0  0
   13.0054    1.6920    7.7299 C   0  0  0  0  0  0  0  0  0  0  0  0
   13.9735    0.8262    7.3076 C   0  0  0  0  0  0  0  0  0  0  0  0
   13.3075    3.0148    8.0119 O   0  0  0  0  0  0  0  0  0  0  0  0
   14.6577    3.4328    7.9608 C   0  0  0  0  0  0  0  0  0  0  0  0
   11.3491   -0.0151    7.6244 C   0  0  0  0  0  0  0  0  0  0  0  0
   12.3135   -0.9029    7.1967 C   0  0  0  0  0  0  0  0  0  0  0  0
   13.6401   -0.4752    7.0374 C   0  0  0  0  0  0  0  0  0  0  0  0
   14.5458   -1.3767    6.6182 N   0  0  0  0  0  0  0  0  0  0  0  0
   14.2228   -2.6516    6.3521 C   0  0  0  0  0  0  0  0  0  0  0  0
   12.9490   -3.0283    6.5133 N   0  0  0  0  0  0  0  0  0  0  0  0
   11.9732   -2.2052    6.9263 C   0  0  0  0  0  0  0  0  0  0  0  0
   10.6433   -2.6456    7.0478 N   0  0  0  0  0  0  0  0  0  0  0  0
   10.3998   -4.0414    7.2372 C   0  0  0  0  0  0  0  0  0  0  0  0
   11.4202   -4.8579    7.6244 C   0  0  0  0  0  0  0  0  0  0  0  0
   11.2111   -6.2361    7.7942 C   0  0  0  0  0  0  0  0  0  0  0  0
   12.5368   -7.2846    8.2934 Cl  0  0  0  0  0  0  0  0  0  0  0  0
    9.9717   -6.7918    7.5736 C   0  0  0  0  0  0  0  0  0  0  0  0
    9.7432   -8.1037    7.7271 F   0  0  0  0  0  0  0  0  0  0  0  0
    8.9383   -5.9423    7.1788 C   0  0  0  0  0  0  0  0  0  0  0  0
    9.1517   -4.5918    7.0143 C   0  0  0  0  0  0  0  0  0  0  0  0
 20 19  2  0
 20 21  1  0
 18 13  1  0
 18 17  2  0
 18 19  1  0
 17 16  1  0
 17 22  1  0
 22 21  2  0
 22 23  1  0
 15 14  1  0
 30 28  1  0
 30 31  2  0
 31 24  1  0
 25 24  2  0
 25 26  1  0
 13 12  2  0
 16 11  2  0
  8  7  1  0
  8  9  1  0
  9 10  1  0
  2  1  1  0
  2  3  1  0
  4  3  1  0
  4  5  1  0
  7  6  1  0
  1  6  1  0
  5  6  1  0
 28 26  2  0
 28 29  1  0
 26 27  1  0
 24 23  1  0
 12 11  1  0
 12 14  1  0
 11 10  1  0
M  CHG  1   6   1
M  END
$$$$
