
     RDKit          3D

 31 34  0  0  0  0  0  0  0  0999 V2000
    6.0240    3.9610    9.1483 C   0  0  0  0  0  0  0  0  0  0  0  0
    5.6467    5.3766    9.4727 C   0  0  0  0  0  0  0  0  0  0  0  0
    4.8316    5.9070    8.5028 O   0  0  0  0  0  0  0  0  0  0  0  0
    5.0055    5.2466    7.3121 C   0  0  0  0  0  0  0  0  0  0  0  0
    6.4443    4.8755    7.0237 C   0  0  0  0  0  0  0  0  0  0  0  0
    6.8954    3.8895    7.9685 N   0  0  0  0  0  4  0  0  0  0  0  0
    8.2358    4.1281    8.4400 C   0  0  0  0  0  0  0  0  0  0  0  0
    8.8966    2.9467    9.0726 C   0  0  0  0  0  0  0  0  0  0  0  0
    9.5490    2.0136    8.0737 C   0  0  0  0  0  0  0  0  0  0  0  0
   10.9262    2.3010    7.9274 O   0  0  0  0  0  0  0  0  0  0  0  0
   11.8471    1.3511    7.5817 C   0  0  0  0  0  0  0  0  0  0  0  0
   13.1622    1.6760    7.3757 C   0  0  0  0  0  0  0  0  0  0  0  0
   14.1019    0.7469    7.0309 C   0  0  0  0  0  0  0  0  0  0  0  0
   13.5048    3.0094    7.5349 O   0  0  0  0  0  0  0  0  0  0  0  0
   14.8736    3.3646    7.5593 C   0  0  0  0  0  0  0  0  0  0  0  0
   11.4559    0.0166    7.4319 C   0  0  0  0  0  0  0  0  0  0  0  0
   12.3912   -0.9348    7.0837 C   0  0  0  0  0  0  0  0  0  0  0  0
   13.7288   -0.5631    6.8816 C   0  0  0  0  0  0  0  0  0  0  0  0
   14.6050   -1.5257    6.5433 N   0  0  0  0  0  0  0  0  0  0  0  0
   14.2431   -2.8093    6.3957 C   0  0  0  0  0  0  0  0  0  0  0  0
   12.9597   -3.1316    6.5948 N   0  0  0  0  0  0  0  0  0  0  0  0
   12.0111   -2.2455    6.9344 C   0  0  0  0  0  0  0  0  0  0  0  0
   10.6696   -2.6332    7.1000 N   0  0  0  0  0  0  0  0  0  0  0  0
   10.3709   -4.0252    7.2286 C   0  0  0  0  0  0  0  0  0  0  0  0
   11.2057   -4.8312    7.9438 C   0  0  0  0  0  0  0  0  0  0  0  0
   10.9460   -6.2059    8.0646 C   0  0  0  0  0  0  0  0  0  0  0  0
   12.0317   -7.2408    8.9900 Cl  0  0  0  0  0  0  0  0  0  0  0  0
    9.8434   -6.7689    7.4639 C   0  0  0  0  0  0  0  0  0  0  0  0
    9.5710   -8.0777    7.5617 F   0  0  0  0  0  0  0  0  0  0  0  0
    8.9990   -5.9301    6.7366 C   0  0  0  0  0  0  0  0  0  0  0  0
    9.2609   -4.5830    6.6227 C   0  0  0  0  0  0  0  0  0  0  0  0
 20 19  2  0
 20 21  1  0
 18 13  1  0
 18 17  2  0
 18 19  1  0
 17 16  1  0
 17 22  1  0
 22 21  2  0
 22 23  1  0
 15 14  1  0
 30 28  1  0
 30 31  2  0
 31 24  1  0
 25 24  2  0
 25 26  1  0
 13 12  2  0
 16 11  2  0
  8  7  1  0
  8  9  1  0
  9 10  1  0
  2  1  1  0
  2  3  1  0
  4  3  1  0
  4  5  1  0
  7  6  1  0
  1  6  1  0
  5  6  1  0
 28 26  2  0
 28 29  1  0
 26 27  1  0
 24 23  1  0
 12 11  1  0
 12 14  1  0
 11 10  1  0
M  CHG  1   6   1
M  END
$$$$
