
     RDKit          3D

 31 34  0  0  0  0  0  0  0  0999 V2000
    6.5752    4.4415   10.6313 C   0  0  0  0  0  0  0  0  0  0  0  0
    6.7365    5.9029   10.9309 C   0  0  0  0  0  0  0  0  0  0  0  0
    5.7979    6.6521   10.2646 O   0  0  0  0  0  0  0  0  0  0  0  0
    5.3412    5.9805    9.1580 C   0  0  0  0  0  0  0  0  0  0  0  0
    6.4193    5.2183    8.4179 C   0  0  0  0  0  0  0  0  0  0  0  0
    6.9022    4.1360    9.2326 N   0  0  0  0  0  4  0  0  0  0  0  0
    8.3333    3.9793    9.1764 C   0  0  0  0  0  0  0  0  0  0  0  0
    8.8949    3.8463    7.7982 C   0  0  0  0  0  0  0  0  0  0  0  0
    9.5298    2.4969    7.5329 C   0  0  0  0  0  0  0  0  0  0  0  0
   10.9137    2.5153    7.8244 O   0  0  0  0  0  0  0  0  0  0  0  0
   11.7820    1.5720    7.3492 C   0  0  0  0  0  0  0  0  0  0  0  0
   13.0556    1.9042    6.9679 C   0  0  0  0  0  0  0  0  0  0  0  0
   13.9426    0.9817    6.4912 C   0  0  0  0  0  0  0  0  0  0  0  0
   13.4120    3.2380    7.0886 O   0  0  0  0  0  0  0  0  0  0  0  0
   14.7844    3.5763    7.1383 C   0  0  0  0  0  0  0  0  0  0  0  0
   11.3788    0.2368    7.2445 C   0  0  0  0  0  0  0  0  0  0  0  0
   12.2611   -0.7080    6.7649 C   0  0  0  0  0  0  0  0  0  0  0  0
   13.5572   -0.3290    6.3847 C   0  0  0  0  0  0  0  0  0  0  0  0
   14.3823   -1.2853    5.9229 N   0  0  0  0  0  0  0  0  0  0  0  0
   14.0082   -2.5695    5.8166 C   0  0  0  0  0  0  0  0  0  0  0  0
   12.7652   -2.8989    6.1868 N   0  0  0  0  0  0  0  0  0  0  0  0
   11.8687   -2.0194    6.6592 C   0  0  0  0  0  0  0  0  0  0  0  0
   10.5638   -2.4142    7.0036 N   0  0  0  0  0  0  0  0  0  0  0  0
   10.2322   -3.8035    6.9465 C   0  0  0  0  0  0  0  0  0  0  0  0
   11.0778   -4.7221    7.4934 C   0  0  0  0  0  0  0  0  0  0  0  0
   10.7852   -6.0940    7.4291 C   0  0  0  0  0  0  0  0  0  0  0  0
   11.8852   -7.2748    8.1375 Cl  0  0  0  0  0  0  0  0  0  0  0  0
    9.6386   -6.5405    6.8129 C   0  0  0  0  0  0  0  0  0  0  0  0
    9.3342   -7.8436    6.7360 F   0  0  0  0  0  0  0  0  0  0  0  0
    8.7838   -5.5875    6.2593 C   0  0  0  0  0  0  0  0  0  0  0  0
    9.0781   -4.2440    6.3264 C   0  0  0  0  0  0  0  0  0  0  0  0
 20 19  2  0
 20 21  1  0
 18 13  1  0
 18 17  2  0
 18 19  1  0
 17 16  1  0
 17 22  1  0
 22 21  2  0
 22 23  1  0
 15 14  1  0
 30 28  1  0
 30 31  2  0
 31 24  1  0
 25 24  2  0
 25 26  1  0
 13 12  2  0
 16 11  2  0
  8  7  1  0
  8  9  1  0
  9 10  1  0
  2  1  1  0
  2  3  1  0
  4  3  1  0
  4  5  1  0
  7  6  1  0
  1  6  1  0
  5  6  1  0
 28 26  2  0
 28 29  1  0
 26 27  1  0
 24 23  1  0
 12 11  1  0
 12 14  1  0
 11 10  1  0
M  CHG  1   6   1
M  END
$$$$
