
     RDKit          3D

 31 34  0  0  0  0  0  0  0  0999 V2000
    5.9394    3.6905    8.6280 C   0  0  0  0  0  0  0  0  0  0  0  0
    5.5830    5.0876    8.2127 C   0  0  0  0  0  0  0  0  0  0  0  0
    4.6792    5.0820    7.1785 O   0  0  0  0  0  0  0  0  0  0  0  0
    4.7489    3.9005    6.4832 C   0  0  0  0  0  0  0  0  0  0  0  0
    6.1581    3.3766    6.3084 C   0  0  0  0  0  0  0  0  0  0  0  0
    6.7004    2.9925    7.5838 N   0  0  0  0  0  4  0  0  0  0  0  0
    8.0763    3.3839    7.7556 C   0  0  0  0  0  0  0  0  0  0  0  0
    8.8351    2.5802    8.7610 C   0  0  0  0  0  0  0  0  0  0  0  0
    9.7183    1.5171    8.1414 C   0  0  0  0  0  0  0  0  0  0  0  0
   11.0274    2.0041    7.9190 O   0  0  0  0  0  0  0  0  0  0  0  0
   12.0573    1.1995    7.5166 C   0  0  0  0  0  0  0  0  0  0  0  0
   13.3154    1.7022    7.3114 C   0  0  0  0  0  0  0  0  0  0  0  0
   14.3611    0.9205    6.9108 C   0  0  0  0  0  0  0  0  0  0  0  0
   13.4852    3.0599    7.5313 O   0  0  0  0  0  0  0  0  0  0  0  0
   14.7761    3.6191    7.3858 C   0  0  0  0  0  0  0  0  0  0  0  0
   11.8396   -0.1661    7.3066 C   0  0  0  0  0  0  0  0  0  0  0  0
   12.8839   -0.9702    6.9016 C   0  0  0  0  0  0  0  0  0  0  0  0
   14.1582   -0.4185    6.7022 C   0  0  0  0  0  0  0  0  0  0  0  0
   15.1455   -1.2419    6.3072 N   0  0  0  0  0  0  0  0  0  0  0  0
   14.9503   -2.5534    6.1014 C   0  0  0  0  0  0  0  0  0  0  0  0
   13.7232   -3.0490    6.2996 N   0  0  0  0  0  0  0  0  0  0  0  0
   12.6741   -2.3109    6.6930 C   0  0  0  0  0  0  0  0  0  0  0  0
   11.3973   -2.8773    6.8551 N   0  0  0  0  0  0  0  0  0  0  0  0
   11.2909   -4.2963    6.9907 C   0  0  0  0  0  0  0  0  0  0  0  0
   10.2415   -4.9520    6.4190 C   0  0  0  0  0  0  0  0  0  0  0  0
   10.1028   -6.3425    6.5582 C   0  0  0  0  0  0  0  0  0  0  0  0
    8.7418   -7.1817    5.8169 Cl  0  0  0  0  0  0  0  0  0  0  0  0
   11.0231   -7.0729    7.2745 C   0  0  0  0  0  0  0  0  0  0  0  0
   10.9156   -8.4005    7.4246 F   0  0  0  0  0  0  0  0  0  0  0  0
   12.0912   -6.3867    7.8523 C   0  0  0  0  0  0  0  0  0  0  0  0
   12.2199   -5.0230    7.7113 C   0  0  0  0  0  0  0  0  0  0  0  0
 20 19  2  0
 20 21  1  0
 18 13  1  0
 18 17  2  0
 18 19  1  0
 17 16  1  0
 17 22  1  0
 22 21  2  0
 22 23  1  0
 15 14  1  0
 30 28  1  0
 30 31  2  0
 31 24  1  0
 25 24  2  0
 25 26  1  0
 13 12  2  0
 16 11  2  0
  8  7  1  0
  8  9  1  0
  9 10  1  0
  2  1  1  0
  2  3  1  0
  4  3  1  0
  4  5  1  0
  7  6  1  0
  1  6  1  0
  5  6  1  0
 28 26  2  0
 28 29  1  0
 26 27  1  0
 24 23  1  0
 12 11  1  0
 12 14  1  0
 11 10  1  0
M  CHG  1   6   1
M  END
$$$$
