
     RDKit          3D

 31 34  0  0  0  0  0  0  0  0999 V2000
    5.2641    3.0089    8.0358 C   0  0  0  0  0  0  0  0  0  0  0  0
    4.4198    3.0257    9.2761 C   0  0  0  0  0  0  0  0  0  0  0  0
    4.1321    4.3119    9.6625 O   0  0  0  0  0  0  0  0  0  0  0  0
    5.0711    5.1846    9.1718 C   0  0  0  0  0  0  0  0  0  0  0  0
    6.4843    4.6435    9.2045 C   0  0  0  0  0  0  0  0  0  0  0  0
    6.6089    3.5416    8.2888 N   0  0  0  0  0  4  0  0  0  0  0  0
    7.3841    2.4490    8.8192 C   0  0  0  0  0  0  0  0  0  0  0  0
    8.8538    2.7055    8.9005 C   0  0  0  0  0  0  0  0  0  0  0  0
    9.6929    1.6104    8.2753 C   0  0  0  0  0  0  0  0  0  0  0  0
   11.0590    1.9742    8.2297 O   0  0  0  0  0  0  0  0  0  0  0  0
   12.0385    1.1180    7.8087 C   0  0  0  0  0  0  0  0  0  0  0  0
   13.3200    1.5528    7.5932 C   0  0  0  0  0  0  0  0  0  0  0  0
   14.3167    0.7186    7.1740 C   0  0  0  0  0  0  0  0  0  0  0  0
   13.5665    2.8971    7.8226 O   0  0  0  0  0  0  0  0  0  0  0  0
   14.6901    3.4995    7.2102 C   0  0  0  0  0  0  0  0  0  0  0  0
   11.7438   -0.2317    7.5897 C   0  0  0  0  0  0  0  0  0  0  0  0
   12.7378   -1.0882    7.1659 C   0  0  0  0  0  0  0  0  0  0  0  0
   14.0383   -0.6054    6.9564 C   0  0  0  0  0  0  0  0  0  0  0  0
   14.9743   -1.4780    6.5432 N   0  0  0  0  0  0  0  0  0  0  0  0
   14.7051   -2.7750    6.3286 C   0  0  0  0  0  0  0  0  0  0  0  0
   13.4550   -3.2043    6.5368 N   0  0  0  0  0  0  0  0  0  0  0  0
   12.4523   -2.4134    6.9484 C   0  0  0  0  0  0  0  0  0  0  0  0
   11.1483   -2.9103    7.1205 N   0  0  0  0  0  0  0  0  0  0  0  0
   10.9556   -4.3262    7.1597 C   0  0  0  0  0  0  0  0  0  0  0  0
    9.9501   -4.8907    6.4330 C   0  0  0  0  0  0  0  0  0  0  0  0
    9.7264   -6.2765    6.4738 C   0  0  0  0  0  0  0  0  0  0  0  0
    8.4228   -6.9976    5.5321 Cl  0  0  0  0  0  0  0  0  0  0  0  0
   10.5175   -7.0942    7.2478 C   0  0  0  0  0  0  0  0  0  0  0  0
   10.3267   -8.4196    7.3065 F   0  0  0  0  0  0  0  0  0  0  0  0
   11.5424   -6.5006    7.9844 C   0  0  0  0  0  0  0  0  0  0  0  0
   11.7550   -5.1409    7.9392 C   0  0  0  0  0  0  0  0  0  0  0  0
 20 19  2  0
 20 21  1  0
 18 13  1  0
 18 17  2  0
 18 19  1  0
 17 16  1  0
 17 22  1  0
 22 21  2  0
 22 23  1  0
 15 14  1  0
 30 28  1  0
 30 31  2  0
 31 24  1  0
 25 24  2  0
 25 26  1  0
 13 12  2  0
 16 11  2  0
  8  7  1  0
  8  9  1  0
  9 10  1  0
  2  1  1  0
  2  3  1  0
  4  3  1  0
  4  5  1  0
  7  6  1  0
  1  6  1  0
  5  6  1  0
 28 26  2  0
 28 29  1  0
 26 27  1  0
 24 23  1  0
 12 11  1  0
 12 14  1  0
 11 10  1  0
M  CHG  1   6   1
M  END
$$$$
