
     RDKit          3D

 31 34  0  0  0  0  0  0  0  0999 V2000
    5.9572    3.6069   10.0133 C   0  0  0  0  0  0  0  0  0  0  0  0
    5.7937    4.7865   10.9262 C   0  0  0  0  0  0  0  0  0  0  0  0
    4.9876    5.7435   10.3599 O   0  0  0  0  0  0  0  0  0  0  0  0
    4.9869    5.6263    8.9923 C   0  0  0  0  0  0  0  0  0  0  0  0
    6.3398    5.2812    8.4079 C   0  0  0  0  0  0  0  0  0  0  0  0
    6.7243    3.9551    8.8105 N   0  0  0  0  0  4  0  0  0  0  0  0
    8.1149    3.8541    9.1738 C   0  0  0  0  0  0  0  0  0  0  0  0
    8.6484    2.4594    9.2269 C   0  0  0  0  0  0  0  0  0  0  0  0
    9.4329    2.0660    7.9924 C   0  0  0  0  0  0  0  0  0  0  0  0
   10.8093    2.3524    8.1469 O   0  0  0  0  0  0  0  0  0  0  0  0
   11.7909    1.4494    7.8454 C   0  0  0  0  0  0  0  0  0  0  0  0
   13.1039    1.8298    7.7514 C   0  0  0  0  0  0  0  0  0  0  0  0
   14.1033    0.9482    7.4529 C   0  0  0  0  0  0  0  0  0  0  0  0
   13.3801    3.1692    7.9760 O   0  0  0  0  0  0  0  0  0  0  0  0
   14.7298    3.5883    8.0312 C   0  0  0  0  0  0  0  0  0  0  0  0
   11.4656    0.1068    7.6264 C   0  0  0  0  0  0  0  0  0  0  0  0
   12.4618   -0.7971    7.3235 C   0  0  0  0  0  0  0  0  0  0  0  0
   13.7951   -0.3693    7.2364 C   0  0  0  0  0  0  0  0  0  0  0  0
   14.7320   -1.2869    6.9386 N   0  0  0  0  0  0  0  0  0  0  0  0
   14.4338   -2.5777    6.7254 C   0  0  0  0  0  0  0  0  0  0  0  0
   13.1528   -2.9540    6.8151 N   0  0  0  0  0  0  0  0  0  0  0  0
   12.1465   -2.1156    7.1064 C   0  0  0  0  0  0  0  0  0  0  0  0
   10.8129   -2.5583    7.1563 N   0  0  0  0  0  0  0  0  0  0  0  0
   10.5550   -3.9622    7.0784 C   0  0  0  0  0  0  0  0  0  0  0  0
   11.3483   -4.8330    7.7642 C   0  0  0  0  0  0  0  0  0  0  0  0
   11.1293   -6.2178    7.6847 C   0  0  0  0  0  0  0  0  0  0  0  0
   12.1611   -7.3365    8.5735 Cl  0  0  0  0  0  0  0  0  0  0  0  0
   10.1092   -6.7254    6.9131 C   0  0  0  0  0  0  0  0  0  0  0  0
    9.8774   -8.0422    6.8179 F   0  0  0  0  0  0  0  0  0  0  0  0
    9.3063   -5.8207    6.2186 C   0  0  0  0  0  0  0  0  0  0  0  0
    9.5278   -4.4642    6.3017 C   0  0  0  0  0  0  0  0  0  0  0  0
 20 19  2  0
 20 21  1  0
 18 13  1  0
 18 17  2  0
 18 19  1  0
 17 16  1  0
 17 22  1  0
 22 21  2  0
 22 23  1  0
 15 14  1  0
 30 28  1  0
 30 31  2  0
 31 24  1  0
 25 24  2  0
 25 26  1  0
 13 12  2  0
 16 11  2  0
  8  7  1  0
  8  9  1  0
  9 10  1  0
  2  1  1  0
  2  3  1  0
  4  3  1  0
  4  5  1  0
  7  6  1  0
  1  6  1  0
  5  6  1  0
 28 26  2  0
 28 29  1  0
 26 27  1  0
 24 23  1  0
 12 11  1  0
 12 14  1  0
 11 10  1  0
M  CHG  1   6   1
M  END
$$$$
