
     RDKit          3D

 31 34  0  0  0  0  0  0  0  0999 V2000
    6.8018    4.6831   10.6306 C   0  0  0  0  0  0  0  0  0  0  0  0
    6.0246    5.7494    9.9160 C   0  0  0  0  0  0  0  0  0  0  0  0
    4.7349    5.3442    9.6735 O   0  0  0  0  0  0  0  0  0  0  0  0
    4.6544    3.9741    9.6572 C   0  0  0  0  0  0  0  0  0  0  0  0
    5.8359    3.3005    8.9928 C   0  0  0  0  0  0  0  0  0  0  0  0
    7.0240    3.5099    9.7758 N   0  0  0  0  0  4  0  0  0  0  0  0
    8.1850    3.8060    8.9756 C   0  0  0  0  0  0  0  0  0  0  0  0
    8.5634    2.7376    8.0020 C   0  0  0  0  0  0  0  0  0  0  0  0
    9.8620    3.0169    7.2742 C   0  0  0  0  0  0  0  0  0  0  0  0
   10.9780    2.6126    8.0433 O   0  0  0  0  0  0  0  0  0  0  0  0
   11.9197    1.7378    7.5768 C   0  0  0  0  0  0  0  0  0  0  0  0
   13.2129    2.1341    7.3570 C   0  0  0  0  0  0  0  0  0  0  0  0
   14.1726    1.2806    6.8927 C   0  0  0  0  0  0  0  0  0  0  0  0
   13.5112    3.4595    7.6303 O   0  0  0  0  0  0  0  0  0  0  0  0
   14.8601    3.8814    7.5749 C   0  0  0  0  0  0  0  0  0  0  0  0
   11.5732    0.4083    7.3145 C   0  0  0  0  0  0  0  0  0  0  0  0
   12.5293   -0.4672    6.8449 C   0  0  0  0  0  0  0  0  0  0  0  0
   13.8433   -0.0238    6.6325 C   0  0  0  0  0  0  0  0  0  0  0  0
   14.7411   -0.9138    6.1738 N   0  0  0  0  0  0  0  0  0  0  0  0
   14.4221   -2.1917    5.9172 C   0  0  0  0  0  0  0  0  0  0  0  0
   13.1603   -2.5834    6.1295 N   0  0  0  0  0  0  0  0  0  0  0  0
   12.1930   -1.7726    6.5847 C   0  0  0  0  0  0  0  0  0  0  0  0
   10.8743   -2.2286    6.7594 N   0  0  0  0  0  0  0  0  0  0  0  0
   10.5908   -3.6091    6.5201 C   0  0  0  0  0  0  0  0  0  0  0  0
   11.0039   -4.5481    7.4176 C   0  0  0  0  0  0  0  0  0  0  0  0
   10.7578   -5.9123    7.1928 C   0  0  0  0  0  0  0  0  0  0  0  0
   11.2971   -7.1197    8.3580 Cl  0  0  0  0  0  0  0  0  0  0  0  0
   10.0943   -6.3304    6.0621 C   0  0  0  0  0  0  0  0  0  0  0  0
    9.8463   -7.6254    5.8212 F   0  0  0  0  0  0  0  0  0  0  0  0
    9.6777   -5.3566    5.1545 C   0  0  0  0  0  0  0  0  0  0  0  0
    9.9232   -4.0209    5.3821 C   0  0  0  0  0  0  0  0  0  0  0  0
 20 19  2  0
 20 21  1  0
 18 13  1  0
 18 17  2  0
 18 19  1  0
 17 16  1  0
 17 22  1  0
 22 21  2  0
 22 23  1  0
 15 14  1  0
 30 28  1  0
 30 31  2  0
 31 24  1  0
 25 24  2  0
 25 26  1  0
 13 12  2  0
 16 11  2  0
  8  7  1  0
  8  9  1  0
  9 10  1  0
  2  1  1  0
  2  3  1  0
  4  3  1  0
  4  5  1  0
  7  6  1  0
  1  6  1  0
  5  6  1  0
 28 26  2  0
 28 29  1  0
 26 27  1  0
 24 23  1  0
 12 11  1  0
 12 14  1  0
 11 10  1  0
M  CHG  1   6   1
M  END
$$$$
