
     RDKit          3D

 31 34  0  0  0  0  0  0  0  0999 V2000
    5.1707    3.0665    7.8441 C   0  0  0  0  0  0  0  0  0  0  0  0
    5.3467    3.6296    9.2238 C   0  0  0  0  0  0  0  0  0  0  0  0
    4.7929    4.8826    9.3221 O   0  0  0  0  0  0  0  0  0  0  0  0
    4.7141    5.4737    8.0858 C   0  0  0  0  0  0  0  0  0  0  0  0
    5.9122    5.2029    7.2015 C   0  0  0  0  0  0  0  0  0  0  0  0
    5.9585    3.8087    6.8516 N   0  0  0  0  0  4  0  0  0  0  0  0
    7.2888    3.2572    6.8962 C   0  0  0  0  0  0  0  0  0  0  0  0
    7.4352    1.9217    6.2422 C   0  0  0  0  0  0  0  0  0  0  0  0
    8.7975    1.7017    5.6178 C   0  0  0  0  0  0  0  0  0  0  0  0
    9.8296    1.8519    6.5731 O   0  0  0  0  0  0  0  0  0  0  0  0
   10.8917    0.9946    6.6551 C   0  0  0  0  0  0  0  0  0  0  0  0
   12.0696    1.2560    6.0056 C   0  0  0  0  0  0  0  0  0  0  0  0
   13.1455    0.4174    6.0718 C   0  0  0  0  0  0  0  0  0  0  0  0
   12.1246    2.4269    5.2664 O   0  0  0  0  0  0  0  0  0  0  0  0
   13.0875    2.5399    4.2365 C   0  0  0  0  0  0  0  0  0  0  0  0
   10.7910   -0.1765    7.4133 C   0  0  0  0  0  0  0  0  0  0  0  0
   11.8672   -1.0350    7.4910 C   0  0  0  0  0  0  0  0  0  0  0  0
   13.0569   -0.7325    6.8119 C   0  0  0  0  0  0  0  0  0  0  0  0
   14.0794   -1.5997    6.9173 N   0  0  0  0  0  0  0  0  0  0  0  0
   13.9960   -2.7269    7.6406 C   0  0  0  0  0  0  0  0  0  0  0  0
   12.8475   -2.9871    8.2760 N   0  0  0  0  0  0  0  0  0  0  0  0
   11.7719   -2.1862    8.2331 C   0  0  0  0  0  0  0  0  0  0  0  0
   10.5778   -2.5241    8.8942 N   0  0  0  0  0  0  0  0  0  0  0  0
   10.4474   -3.8383    9.4413 C   0  0  0  0  0  0  0  0  0  0  0  0
   11.3811   -4.7870    9.1479 C   0  0  0  0  0  0  0  0  0  0  0  0
   11.2619   -6.0914    9.6544 C   0  0  0  0  0  0  0  0  0  0  0  0
   12.4731   -7.3122    9.2685 Cl  0  0  0  0  0  0  0  0  0  0  0  0
   10.2005   -6.4397   10.4579 C   0  0  0  0  0  0  0  0  0  0  0  0
   10.0607   -7.6768   10.9547 F   0  0  0  0  0  0  0  0  0  0  0  0
    9.2546   -5.4568   10.7491 C   0  0  0  0  0  0  0  0  0  0  0  0
    9.3786   -4.1801   10.2482 C   0  0  0  0  0  0  0  0  0  0  0  0
 20 19  2  0
 20 21  1  0
 18 13  1  0
 18 17  2  0
 18 19  1  0
 17 16  1  0
 17 22  1  0
 22 21  2  0
 22 23  1  0
 15 14  1  0
 30 28  1  0
 30 31  2  0
 31 24  1  0
 25 24  2  0
 25 26  1  0
 13 12  2  0
 16 11  2  0
  8  7  1  0
  8  9  1  0
  9 10  1  0
  2  1  1  0
  2  3  1  0
  4  3  1  0
  4  5  1  0
  7  6  1  0
  1  6  1  0
  5  6  1  0
 28 26  2  0
 28 29  1  0
 26 27  1  0
 24 23  1  0
 12 11  1  0
 12 14  1  0
 11 10  1  0
M  CHG  1   6   1
M  END
$$$$
