
     RDKit          3D

 31 34  0  0  0  0  0  0  0  0999 V2000
    7.0488    5.1571   10.0199 C   0  0  0  0  0  0  0  0  0  0  0  0
    7.2833    6.6024    9.6920 C   0  0  0  0  0  0  0  0  0  0  0  0
    6.1345    7.1992    9.2334 O   0  0  0  0  0  0  0  0  0  0  0  0
    5.2773    6.2611    8.7144 C   0  0  0  0  0  0  0  0  0  0  0  0
    5.9705    5.1672    7.9309 C   0  0  0  0  0  0  0  0  0  0  0  0
    6.7745    4.3656    8.8138 N   0  0  0  0  0  4  0  0  0  0  0  0
    8.0571    4.0206    8.2555 C   0  0  0  0  0  0  0  0  0  0  0  0
    8.7908    2.9456    8.9896 C   0  0  0  0  0  0  0  0  0  0  0  0
    9.5162    1.9787    8.0769 C   0  0  0  0  0  0  0  0  0  0  0  0
   10.8589    2.3743    7.8743 O   0  0  0  0  0  0  0  0  0  0  0  0
   11.8384    1.4988    7.4951 C   0  0  0  0  0  0  0  0  0  0  0  0
   13.1435    1.8989    7.3747 C   0  0  0  0  0  0  0  0  0  0  0  0
   14.1407    1.0449    6.9989 C   0  0  0  0  0  0  0  0  0  0  0  0
   13.4137    3.2289    7.6551 O   0  0  0  0  0  0  0  0  0  0  0  0
   14.7531    3.6799    7.6008 C   0  0  0  0  0  0  0  0  0  0  0  0
   11.5194    0.1647    7.2217 C   0  0  0  0  0  0  0  0  0  0  0  0
   12.5135   -0.7114    6.8406 C   0  0  0  0  0  0  0  0  0  0  0  0
   13.8385   -0.2641    6.7286 C   0  0  0  0  0  0  0  0  0  0  0  0
   14.7738   -1.1548    6.3539 N   0  0  0  0  0  0  0  0  0  0  0  0
   14.4814   -2.4371    6.0879 C   0  0  0  0  0  0  0  0  0  0  0  0
   13.2083   -2.8326    6.2032 N   0  0  0  0  0  0  0  0  0  0  0  0
   12.2044   -2.0214    6.5699 C   0  0  0  0  0  0  0  0  0  0  0  0
   10.8778   -2.4819    6.6440 N   0  0  0  0  0  0  0  0  0  0  0  0
   10.6337   -3.8856    6.5277 C   0  0  0  0  0  0  0  0  0  0  0  0
   11.4416   -4.7674    7.1817 C   0  0  0  0  0  0  0  0  0  0  0  0
   11.2361   -6.1516    7.0639 C   0  0  0  0  0  0  0  0  0  0  0  0
   12.2867   -7.2845    7.9118 Cl  0  0  0  0  0  0  0  0  0  0  0  0
   10.2149   -6.6474    6.2863 C   0  0  0  0  0  0  0  0  0  0  0  0
    9.9958   -7.9633    6.1550 F   0  0  0  0  0  0  0  0  0  0  0  0
    9.3970   -5.7316    5.6246 C   0  0  0  0  0  0  0  0  0  0  0  0
    9.6053   -4.3757    5.7450 C   0  0  0  0  0  0  0  0  0  0  0  0
 20 19  2  0
 20 21  1  0
 18 13  1  0
 18 17  2  0
 18 19  1  0
 17 16  1  0
 17 22  1  0
 22 21  2  0
 22 23  1  0
 15 14  1  0
 30 28  1  0
 30 31  2  0
 31 24  1  0
 25 24  2  0
 25 26  1  0
 13 12  2  0
 16 11  2  0
  8  7  1  0
  8  9  1  0
  9 10  1  0
  2  1  1  0
  2  3  1  0
  4  3  1  0
  4  5  1  0
  7  6  1  0
  1  6  1  0
  5  6  1  0
 28 26  2  0
 28 29  1  0
 26 27  1  0
 24 23  1  0
 12 11  1  0
 12 14  1  0
 11 10  1  0
M  CHG  1   6   1
M  END
$$$$
