
     RDKit          3D

 31 34  0  0  0  0  0  0  0  0999 V2000
    7.2178    5.9156    7.8228 C   0  0  0  0  0  0  0  0  0  0  0  0
    5.9145    5.7048    7.1096 C   0  0  0  0  0  0  0  0  0  0  0  0
    4.8501    5.8845    7.9587 O   0  0  0  0  0  0  0  0  0  0  0  0
    5.2333    5.6856    9.2617 C   0  0  0  0  0  0  0  0  0  0  0  0
    6.2098    4.5435    9.4439 C   0  0  0  0  0  0  0  0  0  0  0  0
    7.4649    4.8671    8.8207 N   0  0  0  0  0  4  0  0  0  0  0  0
    8.0460    3.7582    8.1076 C   0  0  0  0  0  0  0  0  0  0  0  0
    8.5507    2.6513    8.9751 C   0  0  0  0  0  0  0  0  0  0  0  0
    9.4158    1.6518    8.2357 C   0  0  0  0  0  0  0  0  0  0  0  0
   10.7884    1.9678    8.3644 O   0  0  0  0  0  0  0  0  0  0  0  0
   11.7809    1.1680    7.8692 C   0  0  0  0  0  0  0  0  0  0  0  0
   13.0401    1.6565    7.6378 C   0  0  0  0  0  0  0  0  0  0  0  0
   14.0491    0.8792    7.1450 C   0  0  0  0  0  0  0  0  0  0  0  0
   13.2505    2.9947    7.9300 O   0  0  0  0  0  0  0  0  0  0  0  0
   14.5778    3.4790    7.9949 C   0  0  0  0  0  0  0  0  0  0  0  0
   11.5229   -0.1777    7.5886 C   0  0  0  0  0  0  0  0  0  0  0  0
   12.5297   -0.9771    7.0902 C   0  0  0  0  0  0  0  0  0  0  0  0
   13.8065   -0.4405    6.8667 C   0  0  0  0  0  0  0  0  0  0  0  0
   14.7564   -1.2585    6.3797 N   0  0  0  0  0  0  0  0  0  0  0  0
   14.5223   -2.5510    6.1055 C   0  0  0  0  0  0  0  0  0  0  0  0
   13.2939   -3.0325    6.3289 N   0  0  0  0  0  0  0  0  0  0  0  0
   12.2802   -2.2982    6.8121 C   0  0  0  0  0  0  0  0  0  0  0  0
   10.9990   -2.8472    6.9976 N   0  0  0  0  0  0  0  0  0  0  0  0
   10.8708   -4.2678    7.0916 C   0  0  0  0  0  0  0  0  0  0  0  0
    9.6467   -4.8211    7.3223 C   0  0  0  0  0  0  0  0  0  0  0  0
    9.4995   -6.2125    7.4421 C   0  0  0  0  0  0  0  0  0  0  0  0
    7.9129   -6.9190    7.7421 Cl  0  0  0  0  0  0  0  0  0  0  0  0
   10.5876   -7.0472    7.3289 C   0  0  0  0  0  0  0  0  0  0  0  0
   10.4769   -8.3785    7.4395 F   0  0  0  0  0  0  0  0  0  0  0  0
   11.8327   -6.4650    7.0920 C   0  0  0  0  0  0  0  0  0  0  0  0
   11.9686   -5.0996    6.9761 C   0  0  0  0  0  0  0  0  0  0  0  0
 20 19  2  0
 20 21  1  0
 18 13  1  0
 18 17  2  0
 18 19  1  0
 17 16  1  0
 17 22  1  0
 22 21  2  0
 22 23  1  0
 15 14  1  0
 30 28  1  0
 30 31  2  0
 31 24  1  0
 25 24  2  0
 25 26  1  0
 13 12  2  0
 16 11  2  0
  8  7  1  0
  8  9  1  0
  9 10  1  0
  2  1  1  0
  2  3  1  0
  4  3  1  0
  4  5  1  0
  7  6  1  0
  1  6  1  0
  5  6  1  0
 28 26  2  0
 28 29  1  0
 26 27  1  0
 24 23  1  0
 12 11  1  0
 12 14  1  0
 11 10  1  0
M  CHG  1   6   1
M  END
$$$$
