
     RDKit          3D

 31 34  0  0  0  0  0  0  0  0999 V2000
    6.7323    5.0231    9.3723 C   0  0  0  0  0  0  0  0  0  0  0  0
    5.9955    5.8433    8.3545 C   0  0  0  0  0  0  0  0  0  0  0  0
    4.6379    5.7737    8.5505 O   0  0  0  0  0  0  0  0  0  0  0  0
    4.3064    4.6277    9.2294 C   0  0  0  0  0  0  0  0  0  0  0  0
    5.1110    3.4157    8.8117 C   0  0  0  0  0  0  0  0  0  0  0  0
    6.4879    3.5867    9.1902 N   0  0  0  0  0  4  0  0  0  0  0  0
    7.4129    3.1437    8.1783 C   0  0  0  0  0  0  0  0  0  0  0  0
    8.8351    3.0512    8.6274 C   0  0  0  0  0  0  0  0  0  0  0  0
    9.7145    2.2547    7.6859 C   0  0  0  0  0  0  0  0  0  0  0  0
   11.0217    2.1086    8.2059 O   0  0  0  0  0  0  0  0  0  0  0  0
   11.9217    1.2107    7.7023 C   0  0  0  0  0  0  0  0  0  0  0  0
   13.2043    1.5835    7.3965 C   0  0  0  0  0  0  0  0  0  0  0  0
   14.1227    0.7066    6.8936 C   0  0  0  0  0  0  0  0  0  0  0  0
   13.5363    2.9097    7.6228 O   0  0  0  0  0  0  0  0  0  0  0  0
   14.9022    3.2752    7.6594 C   0  0  0  0  0  0  0  0  0  0  0  0
   11.5422   -0.1187    7.4899 C   0  0  0  0  0  0  0  0  0  0  0  0
   12.4564   -1.0176    6.9825 C   0  0  0  0  0  0  0  0  0  0  0  0
   13.7609   -0.5980    6.6818 C   0  0  0  0  0  0  0  0  0  0  0  0
   14.6173   -1.5102    6.1890 N   0  0  0  0  0  0  0  0  0  0  0  0
   14.2663   -2.7883    5.9797 C   0  0  0  0  0  0  0  0  0  0  0  0
   13.0146   -3.1571    6.2760 N   0  0  0  0  0  0  0  0  0  0  0  0
   12.0875   -2.3230    6.7712 C   0  0  0  0  0  0  0  0  0  0  0  0
   10.7759   -2.7560    7.0348 N   0  0  0  0  0  0  0  0  0  0  0  0
   10.4776   -4.1485    6.9108 C   0  0  0  0  0  0  0  0  0  0  0  0
   11.2981   -5.0687    7.4919 C   0  0  0  0  0  0  0  0  0  0  0  0
   11.0389   -6.4429    7.3642 C   0  0  0  0  0  0  0  0  0  0  0  0
   12.1063   -7.6258    8.1176 Cl  0  0  0  0  0  0  0  0  0  0  0  0
    9.9510   -6.8901    6.6500 C   0  0  0  0  0  0  0  0  0  0  0  0
    9.6795   -8.1953    6.5109 F   0  0  0  0  0  0  0  0  0  0  0  0
    9.1210   -5.9354    6.0625 C   0  0  0  0  0  0  0  0  0  0  0  0
    9.3823   -4.5896    6.1923 C   0  0  0  0  0  0  0  0  0  0  0  0
 20 19  2  0
 20 21  1  0
 18 13  1  0
 18 17  2  0
 18 19  1  0
 17 16  1  0
 17 22  1  0
 22 21  2  0
 22 23  1  0
 15 14  1  0
 30 28  1  0
 30 31  2  0
 31 24  1  0
 25 24  2  0
 25 26  1  0
 13 12  2  0
 16 11  2  0
  8  7  1  0
  8  9  1  0
  9 10  1  0
  2  1  1  0
  2  3  1  0
  4  3  1  0
  4  5  1  0
  7  6  1  0
  1  6  1  0
  5  6  1  0
 28 26  2  0
 28 29  1  0
 26 27  1  0
 24 23  1  0
 12 11  1  0
 12 14  1  0
 11 10  1  0
M  CHG  1   6   1
M  END
$$$$
