
     RDKit          3D

 31 34  0  0  0  0  0  0  0  0999 V2000
    7.7073    6.0661   10.1871 C   0  0  0  0  0  0  0  0  0  0  0  0
    7.1444    6.9371    9.1026 C   0  0  0  0  0  0  0  0  0  0  0  0
    5.7723    6.8805    9.0836 O   0  0  0  0  0  0  0  0  0  0  0  0
    5.3294    5.7136    9.6550 C   0  0  0  0  0  0  0  0  0  0  0  0
    6.1782    4.5070    9.3165 C   0  0  0  0  0  0  0  0  0  0  0  0
    7.4813    4.6418    9.9099 N   0  0  0  0  0  4  0  0  0  0  0  0
    8.5479    4.2253    9.0354 C   0  0  0  0  0  0  0  0  0  0  0  0
    8.6167    2.7531    8.7889 C   0  0  0  0  0  0  0  0  0  0  0  0
    9.7011    2.3554    7.8092 C   0  0  0  0  0  0  0  0  0  0  0  0
   10.9543    2.2332    8.4535 O   0  0  0  0  0  0  0  0  0  0  0  0
   11.9051    1.3340    8.0569 C   0  0  0  0  0  0  0  0  0  0  0  0
   13.2277    1.6838    7.9795 C   0  0  0  0  0  0  0  0  0  0  0  0
   14.1970    0.8051    7.5876 C   0  0  0  0  0  0  0  0  0  0  0  0
   13.5462    2.9884    8.3217 O   0  0  0  0  0  0  0  0  0  0  0  0
   14.9006    3.3937    8.2817 C   0  0  0  0  0  0  0  0  0  0  0  0
   11.5375    0.0270    7.7207 C   0  0  0  0  0  0  0  0  0  0  0  0
   12.5028   -0.8734    7.3224 C   0  0  0  0  0  0  0  0  0  0  0  0
   13.8472   -0.4777    7.2560 C   0  0  0  0  0  0  0  0  0  0  0  0
   14.7529   -1.3905    6.8624 N   0  0  0  0  0  0  0  0  0  0  0  0
   14.4140   -2.6472    6.5363 C   0  0  0  0  0  0  0  0  0  0  0  0
   13.1235   -2.9934    6.6094 N   0  0  0  0  0  0  0  0  0  0  0  0
   12.1460   -2.1568    6.9903 C   0  0  0  0  0  0  0  0  0  0  0  0
   10.8004   -2.5640    7.0182 N   0  0  0  0  0  0  0  0  0  0  0  0
   10.5078   -3.9622    6.9664 C   0  0  0  0  0  0  0  0  0  0  0  0
   11.2652   -4.8373    7.6864 C   0  0  0  0  0  0  0  0  0  0  0  0
   11.0120   -6.2175    7.6332 C   0  0  0  0  0  0  0  0  0  0  0  0
   11.9976   -7.3418    8.5663 Cl  0  0  0  0  0  0  0  0  0  0  0  0
    9.9938   -6.7162    6.8533 C   0  0  0  0  0  0  0  0  0  0  0  0
    9.7298   -8.0285    6.7827 F   0  0  0  0  0  0  0  0  0  0  0  0
    9.2279   -5.8072    6.1236 C   0  0  0  0  0  0  0  0  0  0  0  0
    9.4828   -4.4552    6.1811 C   0  0  0  0  0  0  0  0  0  0  0  0
 20 19  2  0
 20 21  1  0
 18 13  1  0
 18 17  2  0
 18 19  1  0
 17 16  1  0
 17 22  1  0
 22 21  2  0
 22 23  1  0
 15 14  1  0
 30 28  1  0
 30 31  2  0
 31 24  1  0
 25 24  2  0
 25 26  1  0
 13 12  2  0
 16 11  2  0
  8  7  1  0
  8  9  1  0
  9 10  1  0
  2  1  1  0
  2  3  1  0
  4  3  1  0
  4  5  1  0
  7  6  1  0
  1  6  1  0
  5  6  1  0
 28 26  2  0
 28 29  1  0
 26 27  1  0
 24 23  1  0
 12 11  1  0
 12 14  1  0
 11 10  1  0
M  CHG  1   6   1
M  END
$$$$
