
     RDKit          3D

 31 34  0  0  0  0  0  0  0  0999 V2000
    6.5383    4.7510    9.1709 C   0  0  0  0  0  0  0  0  0  0  0  0
    6.5353    6.2461    9.0429 C   0  0  0  0  0  0  0  0  0  0  0  0
    5.5517    6.6679    8.1822 O   0  0  0  0  0  0  0  0  0  0  0  0
    5.2120    5.6648    7.3089 C   0  0  0  0  0  0  0  0  0  0  0  0
    6.3920    4.8488    6.8266 C   0  0  0  0  0  0  0  0  0  0  0  0
    6.9512    4.1012    7.9206 N   0  0  0  0  0  4  0  0  0  0  0  0
    8.3920    4.0944    7.9244 C   0  0  0  0  0  0  0  0  0  0  0  0
    9.0109    3.0610    8.8085 C   0  0  0  0  0  0  0  0  0  0  0  0
    9.6614    1.9255    8.0457 C   0  0  0  0  0  0  0  0  0  0  0  0
   10.9425    2.2934    7.5726 O   0  0  0  0  0  0  0  0  0  0  0  0
   11.8977    1.3752    7.2346 C   0  0  0  0  0  0  0  0  0  0  0  0
   13.2059    1.7415    7.0558 C   0  0  0  0  0  0  0  0  0  0  0  0
   14.1792    0.8445    6.7192 C   0  0  0  0  0  0  0  0  0  0  0  0
   13.5052    3.0828    7.2341 O   0  0  0  0  0  0  0  0  0  0  0  0
   14.8503    3.5038    7.1168 C   0  0  0  0  0  0  0  0  0  0  0  0
   11.5497    0.0312    7.0648 C   0  0  0  0  0  0  0  0  0  0  0  0
   12.5193   -0.8882    6.7245 C   0  0  0  0  0  0  0  0  0  0  0  0
   13.8485   -0.4745    6.5504 C   0  0  0  0  0  0  0  0  0  0  0  0
   14.7593   -1.4069    6.2190 N   0  0  0  0  0  0  0  0  0  0  0  0
   14.4390   -2.6993    6.0523 C   0  0  0  0  0  0  0  0  0  0  0  0
   13.1625   -3.0618    6.2248 N   0  0  0  0  0  0  0  0  0  0  0  0
   12.1816   -2.2081    6.5555 C   0  0  0  0  0  0  0  0  0  0  0  0
   10.8497   -2.6375    6.6928 N   0  0  0  0  0  0  0  0  0  0  0  0
   10.5827   -4.0417    6.7155 C   0  0  0  0  0  0  0  0  0  0  0  0
   11.4172   -4.8762    7.3975 C   0  0  0  0  0  0  0  0  0  0  0  0
   11.1889   -6.2618    7.4147 C   0  0  0  0  0  0  0  0  0  0  0  0
   12.2741   -7.3336    8.2978 Cl  0  0  0  0  0  0  0  0  0  0  0  0
   10.1181   -6.8066    6.7438 C   0  0  0  0  0  0  0  0  0  0  0  0
    9.8763   -8.1250    6.7422 F   0  0  0  0  0  0  0  0  0  0  0  0
    9.2736   -5.9386    6.0518 C   0  0  0  0  0  0  0  0  0  0  0  0
    9.5045   -4.5811    6.0396 C   0  0  0  0  0  0  0  0  0  0  0  0
 20 19  2  0
 20 21  1  0
 18 13  1  0
 18 17  2  0
 18 19  1  0
 17 16  1  0
 17 22  1  0
 22 21  2  0
 22 23  1  0
 15 14  1  0
 30 28  1  0
 30 31  2  0
 31 24  1  0
 25 24  2  0
 25 26  1  0
 13 12  2  0
 16 11  2  0
  8  7  1  0
  8  9  1  0
  9 10  1  0
  2  1  1  0
  2  3  1  0
  4  3  1  0
  4  5  1  0
  7  6  1  0
  1  6  1  0
  5  6  1  0
 28 26  2  0
 28 29  1  0
 26 27  1  0
 24 23  1  0
 12 11  1  0
 12 14  1  0
 11 10  1  0
M  CHG  1   6   1
M  END
$$$$
