
     RDKit          3D

 31 34  0  0  0  0  0  0  0  0999 V2000
    6.2864    4.4040    9.3298 C   0  0  0  0  0  0  0  0  0  0  0  0
    5.8850    3.9813   10.7124 C   0  0  0  0  0  0  0  0  0  0  0  0
    5.4849    5.0591   11.4637 O   0  0  0  0  0  0  0  0  0  0  0  0
    6.0329    6.2186   10.9744 C   0  0  0  0  0  0  0  0  0  0  0  0
    7.4633    6.0669   10.5031 C   0  0  0  0  0  0  0  0  0  0  0  0
    7.5105    5.2150    9.3453 N   0  0  0  0  0  4  0  0  0  0  0  0
    8.6115    4.2859    9.3701 C   0  0  0  0  0  0  0  0  0  0  0  0
    8.8352    3.5460    8.0914 C   0  0  0  0  0  0  0  0  0  0  0  0
    9.6903    2.3063    8.2533 C   0  0  0  0  0  0  0  0  0  0  0  0
   11.0652    2.6113    8.1229 O   0  0  0  0  0  0  0  0  0  0  0  0
   11.9901    1.6933    7.7084 C   0  0  0  0  0  0  0  0  0  0  0  0
   13.2879    2.0539    7.4568 C   0  0  0  0  0  0  0  0  0  0  0  0
   14.2312    1.1571    7.0431 C   0  0  0  0  0  0  0  0  0  0  0  0
   13.6088    3.3892    7.6429 O   0  0  0  0  0  0  0  0  0  0  0  0
   14.8372    3.7164    8.2628 C   0  0  0  0  0  0  0  0  0  0  0  0
   11.6212    0.3556    7.5337 C   0  0  0  0  0  0  0  0  0  0  0  0
   12.5604   -0.5635    7.1162 C   0  0  0  0  0  0  0  0  0  0  0  0
   13.8798   -0.1559    6.8688 C   0  0  0  0  0  0  0  0  0  0  0  0
   14.7606   -1.0877    6.4634 N   0  0  0  0  0  0  0  0  0  0  0  0
   14.4200   -2.3741    6.2911 C   0  0  0  0  0  0  0  0  0  0  0  0
   13.1535   -2.7310    6.5347 N   0  0  0  0  0  0  0  0  0  0  0  0
   12.2020   -1.8773    6.9421 C   0  0  0  0  0  0  0  0  0  0  0  0
   10.8775   -2.2999    7.1526 N   0  0  0  0  0  0  0  0  0  0  0  0
   10.5846   -3.6969    7.0735 C   0  0  0  0  0  0  0  0  0  0  0  0
   11.5187   -4.6058    7.4727 C   0  0  0  0  0  0  0  0  0  0  0  0
   11.2631   -5.9837    7.3824 C   0  0  0  0  0  0  0  0  0  0  0  0
   12.4774   -7.1518    7.8994 Cl  0  0  0  0  0  0  0  0  0  0  0  0
   10.0645   -6.4459    6.8894 C   0  0  0  0  0  0  0  0  0  0  0  0
    9.7935   -7.7549    6.7911 F   0  0  0  0  0  0  0  0  0  0  0  0
    9.1194   -5.5026    6.4861 C   0  0  0  0  0  0  0  0  0  0  0  0
    9.3778   -4.1532    6.5776 C   0  0  0  0  0  0  0  0  0  0  0  0
 20 19  2  0
 20 21  1  0
 18 13  1  0
 18 17  2  0
 18 19  1  0
 17 16  1  0
 17 22  1  0
 22 21  2  0
 22 23  1  0
 15 14  1  0
 30 28  1  0
 30 31  2  0
 31 24  1  0
 25 24  2  0
 25 26  1  0
 13 12  2  0
 16 11  2  0
  8  7  1  0
  8  9  1  0
  9 10  1  0
  2  1  1  0
  2  3  1  0
  4  3  1  0
  4  5  1  0
  7  6  1  0
  1  6  1  0
  5  6  1  0
 28 26  2  0
 28 29  1  0
 26 27  1  0
 24 23  1  0
 12 11  1  0
 12 14  1  0
 11 10  1  0
M  CHG  1   6   1
M  END
$$$$
