
     RDKit          3D

 31 34  0  0  0  0  0  0  0  0999 V2000
    7.2333    5.6514   10.4044 C   0  0  0  0  0  0  0  0  0  0  0  0
    6.4198    6.5919    9.5647 C   0  0  0  0  0  0  0  0  0  0  0  0
    5.0788    6.3129    9.6658 O   0  0  0  0  0  0  0  0  0  0  0  0
    4.8845    5.0076   10.0434 C   0  0  0  0  0  0  0  0  0  0  0  0
    5.8511    4.0356    9.4016 C   0  0  0  0  0  0  0  0  0  0  0  0
    7.1842    4.2794    9.8832 N   0  0  0  0  0  4  0  0  0  0  0  0
    8.1833    4.2035    8.8479 C   0  0  0  0  0  0  0  0  0  0  0  0
    8.5380    2.8164    8.4205 C   0  0  0  0  0  0  0  0  0  0  0  0
    9.6805    2.7645    7.4275 C   0  0  0  0  0  0  0  0  0  0  0  0
   10.9080    2.4856    8.0725 O   0  0  0  0  0  0  0  0  0  0  0  0
   11.7786    1.5312    7.6243 C   0  0  0  0  0  0  0  0  0  0  0  0
   13.0878    1.8322    7.3540 C   0  0  0  0  0  0  0  0  0  0  0  0
   13.9779    0.8980    6.9067 C   0  0  0  0  0  0  0  0  0  0  0  0
   13.4776    3.1465    7.5573 O   0  0  0  0  0  0  0  0  0  0  0  0
   14.8371    3.4205    7.8351 C   0  0  0  0  0  0  0  0  0  0  0  0
   11.3409    0.2166    7.4333 C   0  0  0  0  0  0  0  0  0  0  0  0
   12.2257   -0.7396    6.9818 C   0  0  0  0  0  0  0  0  0  0  0  0
   13.5589   -0.3927    6.7162 C   0  0  0  0  0  0  0  0  0  0  0  0
   14.3850   -1.3590    6.2776 N   0  0  0  0  0  0  0  0  0  0  0  0
   13.9781   -2.6237    6.0894 C   0  0  0  0  0  0  0  0  0  0  0  0
   12.7003   -2.9225    6.3511 N   0  0  0  0  0  0  0  0  0  0  0  0
   11.7997   -2.0308    6.7917 C   0  0  0  0  0  0  0  0  0  0  0  0
   10.4601   -2.3917    7.0202 N   0  0  0  0  0  0  0  0  0  0  0  0
   10.1027   -3.7741    6.9500 C   0  0  0  0  0  0  0  0  0  0  0  0
   10.8549   -4.6998    7.6097 C   0  0  0  0  0  0  0  0  0  0  0  0
   10.5376   -6.0658    7.5365 C   0  0  0  0  0  0  0  0  0  0  0  0
   11.5169   -7.2560    8.3914 Cl  0  0  0  0  0  0  0  0  0  0  0  0
    9.4606   -6.4992    6.7977 C   0  0  0  0  0  0  0  0  0  0  0  0
    9.1348   -7.7963    6.7093 F   0  0  0  0  0  0  0  0  0  0  0  0
    8.7010   -5.5389    6.1296 C   0  0  0  0  0  0  0  0  0  0  0  0
    9.0189   -4.2013    6.2062 C   0  0  0  0  0  0  0  0  0  0  0  0
 20 19  2  0
 20 21  1  0
 18 13  1  0
 18 17  2  0
 18 19  1  0
 17 16  1  0
 17 22  1  0
 22 21  2  0
 22 23  1  0
 15 14  1  0
 30 28  1  0
 30 31  2  0
 31 24  1  0
 25 24  2  0
 25 26  1  0
 13 12  2  0
 16 11  2  0
  8  7  1  0
  8  9  1  0
  9 10  1  0
  2  1  1  0
  2  3  1  0
  4  3  1  0
  4  5  1  0
  7  6  1  0
  1  6  1  0
  5  6  1  0
 28 26  2  0
 28 29  1  0
 26 27  1  0
 24 23  1  0
 12 11  1  0
 12 14  1  0
 11 10  1  0
M  CHG  1   6   1
M  END
$$$$
