
     RDKit          3D

 31 34  0  0  0  0  0  0  0  0999 V2000
    6.7306    4.9708    9.9707 C   0  0  0  0  0  0  0  0  0  0  0  0
    5.8824    5.8167    9.0670 C   0  0  0  0  0  0  0  0  0  0  0  0
    4.5711    5.4090    9.0932 O   0  0  0  0  0  0  0  0  0  0  0  0
    4.4818    4.0957    9.4824 C   0  0  0  0  0  0  0  0  0  0  0  0
    5.5754    3.2151    8.9171 C   0  0  0  0  0  0  0  0  0  0  0  0
    6.8467    3.5943    9.4726 N   0  0  0  0  0  4  0  0  0  0  0  0
    7.9097    3.6038    8.5002 C   0  0  0  0  0  0  0  0  0  0  0  0
    8.7405    2.3623    8.4685 C   0  0  0  0  0  0  0  0  0  0  0  0
    9.7622    2.3483    7.3504 C   0  0  0  0  0  0  0  0  0  0  0  0
   11.0807    2.3174    7.8613 O   0  0  0  0  0  0  0  0  0  0  0  0
   11.9912    1.3630    7.5007 C   0  0  0  0  0  0  0  0  0  0  0  0
   13.3226    1.6611    7.3732 C   0  0  0  0  0  0  0  0  0  0  0  0
   14.2524    0.7269    7.0157 C   0  0  0  0  0  0  0  0  0  0  0  0
   13.6925    2.9724    7.6268 O   0  0  0  0  0  0  0  0  0  0  0  0
   15.0681    3.2991    7.6629 C   0  0  0  0  0  0  0  0  0  0  0  0
   11.5724    0.0515    7.2542 C   0  0  0  0  0  0  0  0  0  0  0  0
   12.4973   -0.9047    6.8918 C   0  0  0  0  0  0  0  0  0  0  0  0
   13.8522   -0.5608    6.7719 C   0  0  0  0  0  0  0  0  0  0  0  0
   14.7173   -1.5270    6.4160 N   0  0  0  0  0  0  0  0  0  0  0  0
   14.3289   -2.7887    6.1759 C   0  0  0  0  0  0  0  0  0  0  0  0
   13.0297   -3.0847    6.2982 N   0  0  0  0  0  0  0  0  0  0  0  0
   12.0901   -2.1928    6.6476 C   0  0  0  0  0  0  0  0  0  0  0  0
   10.7326   -2.5504    6.7299 N   0  0  0  0  0  0  0  0  0  0  0  0
   10.3896   -3.9381    6.7264 C   0  0  0  0  0  0  0  0  0  0  0  0
   11.1616   -4.8257    7.4149 C   0  0  0  0  0  0  0  0  0  0  0  0
   10.8583   -6.1969    7.4071 C   0  0  0  0  0  0  0  0  0  0  0  0
   11.8631   -7.3376    8.2990 Cl  0  0  0  0  0  0  0  0  0  0  0  0
    9.7754   -6.6738    6.7047 C   0  0  0  0  0  0  0  0  0  0  0  0
    9.4626   -7.9769    6.6788 F   0  0  0  0  0  0  0  0  0  0  0  0
    8.9954   -5.7521    6.0064 C   0  0  0  0  0  0  0  0  0  0  0  0
    9.2997   -4.4092    6.0188 C   0  0  0  0  0  0  0  0  0  0  0  0
 20 19  2  0
 20 21  1  0
 18 13  1  0
 18 17  2  0
 18 19  1  0
 17 16  1  0
 17 22  1  0
 22 21  2  0
 22 23  1  0
 15 14  1  0
 30 28  1  0
 30 31  2  0
 31 24  1  0
 25 24  2  0
 25 26  1  0
 13 12  2  0
 16 11  2  0
  8  7  1  0
  8  9  1  0
  9 10  1  0
  2  1  1  0
  2  3  1  0
  4  3  1  0
  4  5  1  0
  7  6  1  0
  1  6  1  0
  5  6  1  0
 28 26  2  0
 28 29  1  0
 26 27  1  0
 24 23  1  0
 12 11  1  0
 12 14  1  0
 11 10  1  0
M  CHG  1   6   1
M  END
$$$$
