
     RDKit          3D

 31 34  0  0  0  0  0  0  0  0999 V2000
    5.9131    5.1253    7.7408 C   0  0  0  0  0  0  0  0  0  0  0  0
    4.7793    4.3984    7.0793 C   0  0  0  0  0  0  0  0  0  0  0  0
    3.8296    4.0214    7.9971 O   0  0  0  0  0  0  0  0  0  0  0  0
    4.3802    3.9292    9.2511 C   0  0  0  0  0  0  0  0  0  0  0  0
    5.7745    3.3404    9.2646 C   0  0  0  0  0  0  0  0  0  0  0  0
    6.6915    4.2361    8.6125 N   0  0  0  0  0  4  0  0  0  0  0  0
    7.6358    3.5590    7.7606 C   0  0  0  0  0  0  0  0  0  0  0  0
    8.7342    2.8493    8.4834 C   0  0  0  0  0  0  0  0  0  0  0  0
   10.0393    2.8167    7.7154 C   0  0  0  0  0  0  0  0  0  0  0  0
   11.0534    2.1653    8.4555 O   0  0  0  0  0  0  0  0  0  0  0  0
   11.9036    1.2505    7.8985 C   0  0  0  0  0  0  0  0  0  0  0  0
   13.1970    1.5783    7.5864 C   0  0  0  0  0  0  0  0  0  0  0  0
   14.0665    0.6837    7.0307 C   0  0  0  0  0  0  0  0  0  0  0  0
   13.5926    2.8772    7.8632 O   0  0  0  0  0  0  0  0  0  0  0  0
   14.9367    3.2472    7.6249 C   0  0  0  0  0  0  0  0  0  0  0  0
   11.4606   -0.0500    7.6363 C   0  0  0  0  0  0  0  0  0  0  0  0
   12.3248   -0.9662    7.0751 C   0  0  0  0  0  0  0  0  0  0  0  0
   13.6423   -0.5929    6.7697 C   0  0  0  0  0  0  0  0  0  0  0  0
   14.4485   -1.5204    6.2237 N   0  0  0  0  0  0  0  0  0  0  0  0
   14.0363   -2.7712    5.9662 C   0  0  0  0  0  0  0  0  0  0  0  0
   12.7738   -3.0959    6.2684 N   0  0  0  0  0  0  0  0  0  0  0  0
   11.8936   -2.2433    6.8148 C   0  0  0  0  0  0  0  0  0  0  0  0
   10.5679   -2.6280    7.0826 N   0  0  0  0  0  0  0  0  0  0  0  0
   10.2456   -4.0207    7.0774 C   0  0  0  0  0  0  0  0  0  0  0  0
   11.0772   -4.9080    7.6930 C   0  0  0  0  0  0  0  0  0  0  0  0
   10.7941   -6.2834    7.6811 C   0  0  0  0  0  0  0  0  0  0  0  0
   11.8760   -7.4237    8.4783 Cl  0  0  0  0  0  0  0  0  0  0  0  0
    9.6712   -6.7649    7.0480 C   0  0  0  0  0  0  0  0  0  0  0  0
    9.3763   -8.0722    7.0200 F   0  0  0  0  0  0  0  0  0  0  0  0
    8.8304   -5.8436    6.4238 C   0  0  0  0  0  0  0  0  0  0  0  0
    9.1153   -4.4964    6.4398 C   0  0  0  0  0  0  0  0  0  0  0  0
 20 19  2  0
 20 21  1  0
 18 13  1  0
 18 17  2  0
 18 19  1  0
 17 16  1  0
 17 22  1  0
 22 21  2  0
 22 23  1  0
 15 14  1  0
 30 28  1  0
 30 31  2  0
 31 24  1  0
 25 24  2  0
 25 26  1  0
 13 12  2  0
 16 11  2  0
  8  7  1  0
  8  9  1  0
  9 10  1  0
  2  1  1  0
  2  3  1  0
  4  3  1  0
  4  5  1  0
  7  6  1  0
  1  6  1  0
  5  6  1  0
 28 26  2  0
 28 29  1  0
 26 27  1  0
 24 23  1  0
 12 11  1  0
 12 14  1  0
 11 10  1  0
M  CHG  1   6   1
M  END
$$$$
