
     RDKit          3D

 31 34  0  0  0  0  0  0  0  0999 V2000
    6.2648    4.2865    8.9814 C   0  0  0  0  0  0  0  0  0  0  0  0
    5.3908    4.6837    7.8282 C   0  0  0  0  0  0  0  0  0  0  0  0
    4.2347    3.9426    7.8042 O   0  0  0  0  0  0  0  0  0  0  0  0
    4.4116    2.7510    8.4623 C   0  0  0  0  0  0  0  0  0  0  0  0
    5.7654    2.1172    8.2253 C   0  0  0  0  0  0  0  0  0  0  0  0
    6.7966    2.9278    8.8152 N   0  0  0  0  0  4  0  0  0  0  0  0
    7.9667    3.0499    7.9835 C   0  0  0  0  0  0  0  0  0  0  0  0
    9.1643    3.6243    8.6679 C   0  0  0  0  0  0  0  0  0  0  0  0
   10.4785    3.1628    8.0730 C   0  0  0  0  0  0  0  0  0  0  0  0
   10.9581    2.0037    8.7263 O   0  0  0  0  0  0  0  0  0  0  0  0
   11.8787    1.1645    8.1624 C   0  0  0  0  0  0  0  0  0  0  0  0
   13.1476    1.5920    7.8711 C   0  0  0  0  0  0  0  0  0  0  0  0
   14.0861    0.7744    7.3091 C   0  0  0  0  0  0  0  0  0  0  0  0
   13.4439    2.9110    8.1760 O   0  0  0  0  0  0  0  0  0  0  0  0
   14.7631    3.3790    7.9736 C   0  0  0  0  0  0  0  0  0  0  0  0
   11.5353   -0.1598    7.8715 C   0  0  0  0  0  0  0  0  0  0  0  0
   12.4700   -0.9993    7.3036 C   0  0  0  0  0  0  0  0  0  0  0  0
   13.7595   -0.5247    7.0201 C   0  0  0  0  0  0  0  0  0  0  0  0
   14.6371   -1.3801    6.4664 N   0  0  0  0  0  0  0  0  0  0  0  0
   14.3206   -2.6526    6.1816 C   0  0  0  0  0  0  0  0  0  0  0  0
   13.0824   -3.0747    6.4633 N   0  0  0  0  0  0  0  0  0  0  0  0
   12.1365   -2.2995    7.0152 C   0  0  0  0  0  0  0  0  0  0  0  0
   10.8400   -2.7853    7.2607 N   0  0  0  0  0  0  0  0  0  0  0  0
   10.5880   -4.1813    7.0842 C   0  0  0  0  0  0  0  0  0  0  0  0
   11.3843   -5.0949    7.7081 C   0  0  0  0  0  0  0  0  0  0  0  0
   11.1711   -6.4716    7.5312 C   0  0  0  0  0  0  0  0  0  0  0  0
   12.2067   -7.6457    8.3405 Cl  0  0  0  0  0  0  0  0  0  0  0  0
   10.1538   -6.9279    6.7247 C   0  0  0  0  0  0  0  0  0  0  0  0
    9.9275   -8.2356    6.5370 F   0  0  0  0  0  0  0  0  0  0  0  0
    9.3478   -5.9799    6.0945 C   0  0  0  0  0  0  0  0  0  0  0  0
    9.5636   -4.6317    6.2729 C   0  0  0  0  0  0  0  0  0  0  0  0
 20 19  2  0
 20 21  1  0
 18 13  1  0
 18 17  2  0
 18 19  1  0
 17 16  1  0
 17 22  1  0
 22 21  2  0
 22 23  1  0
 15 14  1  0
 30 28  1  0
 30 31  2  0
 31 24  1  0
 25 24  2  0
 25 26  1  0
 13 12  2  0
 16 11  2  0
  8  7  1  0
  8  9  1  0
  9 10  1  0
  2  1  1  0
  2  3  1  0
  4  3  1  0
  4  5  1  0
  7  6  1  0
  1  6  1  0
  5  6  1  0
 28 26  2  0
 28 29  1  0
 26 27  1  0
 24 23  1  0
 12 11  1  0
 12 14  1  0
 11 10  1  0
M  CHG  1   6   1
M  END
$$$$
