
     RDKit          3D

 31 34  0  0  0  0  0  0  0  0999 V2000
    5.6963    4.0494    9.2164 C   0  0  0  0  0  0  0  0  0  0  0  0
    4.7379    4.5233    8.1636 C   0  0  0  0  0  0  0  0  0  0  0  0
    3.8071    3.5571    7.8697 O   0  0  0  0  0  0  0  0  0  0  0  0
    4.2871    2.3114    8.1892 C   0  0  0  0  0  0  0  0  0  0  0  0
    5.7548    2.1222    7.8713 C   0  0  0  0  0  0  0  0  0  0  0  0
    6.5532    2.9650    8.7202 N   0  0  0  0  0  4  0  0  0  0  0  0
    7.6452    3.5976    8.0250 C   0  0  0  0  0  0  0  0  0  0  0  0
    8.9936    3.3479    8.6182 C   0  0  0  0  0  0  0  0  0  0  0  0
    9.7048    2.1527    8.0182 C   0  0  0  0  0  0  0  0  0  0  0  0
   11.0525    2.0917    8.4430 O   0  0  0  0  0  0  0  0  0  0  0  0
   11.9166    1.1185    8.0237 C   0  0  0  0  0  0  0  0  0  0  0  0
   13.2444    1.3863    7.8165 C   0  0  0  0  0  0  0  0  0  0  0  0
   14.1285    0.4327    7.3991 C   0  0  0  0  0  0  0  0  0  0  0  0
   13.6598    2.6871    8.0525 O   0  0  0  0  0  0  0  0  0  0  0  0
   15.0450    2.9729    8.0493 C   0  0  0  0  0  0  0  0  0  0  0  0
   11.4528   -0.1816    7.7978 C   0  0  0  0  0  0  0  0  0  0  0  0
   12.3312   -1.1569    7.3757 C   0  0  0  0  0  0  0  0  0  0  0  0
   13.6840   -0.8440    7.1748 C   0  0  0  0  0  0  0  0  0  0  0  0
   14.5029   -1.8280    6.7630 N   0  0  0  0  0  0  0  0  0  0  0  0
   14.0710   -3.0791    6.5418 C   0  0  0  0  0  0  0  0  0  0  0  0
   12.7750   -3.3454    6.7418 N   0  0  0  0  0  0  0  0  0  0  0  0
   11.8797   -2.4339    7.1515 C   0  0  0  0  0  0  0  0  0  0  0  0
   10.5217   -2.7603    7.3149 N   0  0  0  0  0  0  0  0  0  0  0  0
   10.1666   -4.1312    7.5098 C   0  0  0  0  0  0  0  0  0  0  0  0
   11.1388   -5.0490    7.7748 C   0  0  0  0  0  0  0  0  0  0  0  0
   10.8172   -6.4052    7.9466 C   0  0  0  0  0  0  0  0  0  0  0  0
   12.0812   -7.5852    8.2874 Cl  0  0  0  0  0  0  0  0  0  0  0  0
    9.5140   -6.8365    7.8515 C   0  0  0  0  0  0  0  0  0  0  0  0
    9.1781   -8.1244    8.0102 F   0  0  0  0  0  0  0  0  0  0  0  0
    8.5314   -5.8844    7.5808 C   0  0  0  0  0  0  0  0  0  0  0  0
    8.8550   -4.5565    7.4133 C   0  0  0  0  0  0  0  0  0  0  0  0
 20 19  2  0
 20 21  1  0
 18 13  1  0
 18 17  2  0
 18 19  1  0
 17 16  1  0
 17 22  1  0
 22 21  2  0
 22 23  1  0
 15 14  1  0
 30 28  1  0
 30 31  2  0
 31 24  1  0
 25 24  2  0
 25 26  1  0
 13 12  2  0
 16 11  2  0
  8  7  1  0
  8  9  1  0
  9 10  1  0
  2  1  1  0
  2  3  1  0
  4  3  1  0
  4  5  1  0
  7  6  1  0
  1  6  1  0
  5  6  1  0
 28 26  2  0
 28 29  1  0
 26 27  1  0
 24 23  1  0
 12 11  1  0
 12 14  1  0
 11 10  1  0
M  CHG  1   6   1
M  END
$$$$
