
     RDKit          3D

 31 34  0  0  0  0  0  0  0  0999 V2000
    5.4161    2.8582    8.0828 C   0  0  0  0  0  0  0  0  0  0  0  0
    4.5966    2.4301    9.2646 C   0  0  0  0  0  0  0  0  0  0  0  0
    3.7716    3.4429    9.6887 O   0  0  0  0  0  0  0  0  0  0  0  0
    4.2664    4.6629    9.3003 C   0  0  0  0  0  0  0  0  0  0  0  0
    5.7727    4.7717    9.4012 C   0  0  0  0  0  0  0  0  0  0  0  0
    6.3930    3.8923    8.4471 N   0  0  0  0  0  4  0  0  0  0  0  0
    7.5387    3.1982    8.9775 C   0  0  0  0  0  0  0  0  0  0  0  0
    8.2131    2.2759    8.0146 C   0  0  0  0  0  0  0  0  0  0  0  0
    9.5528    2.7872    7.5269 C   0  0  0  0  0  0  0  0  0  0  0  0
   10.6122    2.2844    8.3177 O   0  0  0  0  0  0  0  0  0  0  0  0
   11.5381    1.4001    7.8376 C   0  0  0  0  0  0  0  0  0  0  0  0
   12.8406    1.7736    7.6335 C   0  0  0  0  0  0  0  0  0  0  0  0
   13.7850    0.9102    7.1562 C   0  0  0  0  0  0  0  0  0  0  0  0
   13.1651    3.0863    7.9370 O   0  0  0  0  0  0  0  0  0  0  0  0
   14.5065    3.5097    7.7897 C   0  0  0  0  0  0  0  0  0  0  0  0
   11.1653    0.0842    7.5447 C   0  0  0  0  0  0  0  0  0  0  0  0
   12.1056   -0.8010    7.0616 C   0  0  0  0  0  0  0  0  0  0  0  0
   13.4299   -0.3811    6.8660 C   0  0  0  0  0  0  0  0  0  0  0  0
   14.3115   -1.2798    6.3931 N   0  0  0  0  0  0  0  0  0  0  0  0
   13.9672   -2.5448    6.1073 C   0  0  0  0  0  0  0  0  0  0  0  0
   12.6962   -2.9142    6.3041 N   0  0  0  0  0  0  0  0  0  0  0  0
   11.7435   -2.0932    6.7714 C   0  0  0  0  0  0  0  0  0  0  0  0
   10.4145   -2.5248    6.9289 N   0  0  0  0  0  0  0  0  0  0  0  0
   10.1440   -3.9283    6.9050 C   0  0  0  0  0  0  0  0  0  0  0  0
   10.9473   -4.7822    7.6004 C   0  0  0  0  0  0  0  0  0  0  0  0
   10.7157   -6.1670    7.5732 C   0  0  0  0  0  0  0  0  0  0  0  0
   11.7605   -7.2639    8.4740 Cl  0  0  0  0  0  0  0  0  0  0  0  0
    9.6730   -6.6916    6.8444 C   0  0  0  0  0  0  0  0  0  0  0  0
    9.4288   -8.0088    6.7996 F   0  0  0  0  0  0  0  0  0  0  0  0
    8.8602   -5.8040    6.1394 C   0  0  0  0  0  0  0  0  0  0  0  0
    9.0942   -4.4474    6.1711 C   0  0  0  0  0  0  0  0  0  0  0  0
 20 19  2  0
 20 21  1  0
 18 13  1  0
 18 17  2  0
 18 19  1  0
 17 16  1  0
 17 22  1  0
 22 21  2  0
 22 23  1  0
 15 14  1  0
 30 28  1  0
 30 31  2  0
 31 24  1  0
 25 24  2  0
 25 26  1  0
 13 12  2  0
 16 11  2  0
  8  7  1  0
  8  9  1  0
  9 10  1  0
  2  1  1  0
  2  3  1  0
  4  3  1  0
  4  5  1  0
  7  6  1  0
  1  6  1  0
  5  6  1  0
 28 26  2  0
 28 29  1  0
 26 27  1  0
 24 23  1  0
 12 11  1  0
 12 14  1  0
 11 10  1  0
M  CHG  1   6   1
M  END
$$$$
