
     RDKit          3D

 31 34  0  0  0  0  0  0  0  0999 V2000
    7.3307    5.1350   10.7135 C   0  0  0  0  0  0  0  0  0  0  0  0
    7.2356    6.5324   10.1753 C   0  0  0  0  0  0  0  0  0  0  0  0
    5.9884    6.7798    9.6560 O   0  0  0  0  0  0  0  0  0  0  0  0
    5.3749    5.6064    9.2943 C   0  0  0  0  0  0  0  0  0  0  0  0
    6.3103    4.5965    8.6651 C   0  0  0  0  0  0  0  0  0  0  0  0
    7.2618    4.1353    9.6400 N   0  0  0  0  0  4  0  0  0  0  0  0
    8.5977    4.0131    9.1143 C   0  0  0  0  0  0  0  0  0  0  0  0
    8.8037    2.8565    8.1909 C   0  0  0  0  0  0  0  0  0  0  0  0
    9.8449    1.8715    8.6806 C   0  0  0  0  0  0  0  0  0  0  0  0
   11.1470    2.2694    8.2979 O   0  0  0  0  0  0  0  0  0  0  0  0
   12.0853    1.3865    7.8397 C   0  0  0  0  0  0  0  0  0  0  0  0
   13.3728    1.7824    7.5880 C   0  0  0  0  0  0  0  0  0  0  0  0
   14.3289    0.9210    7.1311 C   0  0  0  0  0  0  0  0  0  0  0  0
   13.6691    3.1161    7.8206 O   0  0  0  0  0  0  0  0  0  0  0  0
   14.8987    3.6343    7.3517 C   0  0  0  0  0  0  0  0  0  0  0  0
   11.7411    0.0489    7.6189 C   0  0  0  0  0  0  0  0  0  0  0  0
   12.6936   -0.8347    7.1573 C   0  0  0  0  0  0  0  0  0  0  0  0
   14.0018   -0.3914    6.9115 C   0  0  0  0  0  0  0  0  0  0  0  0
   14.8963   -1.2894    6.4621 N   0  0  0  0  0  0  0  0  0  0  0  0
   14.5794   -2.5752    6.2454 C   0  0  0  0  0  0  0  0  0  0  0  0
   13.3231   -2.9666    6.4888 N   0  0  0  0  0  0  0  0  0  0  0  0
   12.3594   -2.1482    6.9380 C   0  0  0  0  0  0  0  0  0  0  0  0
   11.0461   -2.6051    7.1465 N   0  0  0  0  0  0  0  0  0  0  0  0
   10.7750   -4.0002    6.9930 C   0  0  0  0  0  0  0  0  0  0  0  0
   11.5920   -4.9157    7.5865 C   0  0  0  0  0  0  0  0  0  0  0  0
   11.3598   -6.2919    7.4307 C   0  0  0  0  0  0  0  0  0  0  0  0
   12.4225   -7.4685    8.2005 Cl  0  0  0  0  0  0  0  0  0  0  0  0
   10.3025   -6.7457    6.6760 C   0  0  0  0  0  0  0  0  0  0  0  0
   10.0573   -8.0529    6.5094 F   0  0  0  0  0  0  0  0  0  0  0  0
    9.4757   -5.7959    6.0763 C   0  0  0  0  0  0  0  0  0  0  0  0
    9.7104   -4.4481    6.2337 C   0  0  0  0  0  0  0  0  0  0  0  0
 20 19  2  0
 20 21  1  0
 18 13  1  0
 18 17  2  0
 18 19  1  0
 17 16  1  0
 17 22  1  0
 22 21  2  0
 22 23  1  0
 15 14  1  0
 30 28  1  0
 30 31  2  0
 31 24  1  0
 25 24  2  0
 25 26  1  0
 13 12  2  0
 16 11  2  0
  8  7  1  0
  8  9  1  0
  9 10  1  0
  2  1  1  0
  2  3  1  0
  4  3  1  0
  4  5  1  0
  7  6  1  0
  1  6  1  0
  5  6  1  0
 28 26  2  0
 28 29  1  0
 26 27  1  0
 24 23  1  0
 12 11  1  0
 12 14  1  0
 11 10  1  0
M  CHG  1   6   1
M  END
$$$$
