
     RDKit          3D

 31 34  0  0  0  0  0  0  0  0999 V2000
    5.7225    2.7731    9.6080 C   0  0  0  0  0  0  0  0  0  0  0  0
    5.4878    3.5032   10.8977 C   0  0  0  0  0  0  0  0  0  0  0  0
    4.7970    4.6714   10.6873 O   0  0  0  0  0  0  0  0  0  0  0  0
    4.9666    5.1067    9.3966 C   0  0  0  0  0  0  0  0  0  0  0  0
    6.3693    4.9074    8.8640 C   0  0  0  0  0  0  0  0  0  0  0  0
    6.6495    3.5028    8.7335 N   0  0  0  0  0  4  0  0  0  0  0  0
    7.9775    3.1474    9.1647 C   0  0  0  0  0  0  0  0  0  0  0  0
    9.0801    3.8382    8.4301 C   0  0  0  0  0  0  0  0  0  0  0  0
    9.9581    2.8951    7.6339 C   0  0  0  0  0  0  0  0  0  0  0  0
   10.9705    2.3302    8.4442 O   0  0  0  0  0  0  0  0  0  0  0  0
   11.9056    1.4586    7.9589 C   0  0  0  0  0  0  0  0  0  0  0  0
   13.2024    1.8491    7.7501 C   0  0  0  0  0  0  0  0  0  0  0  0
   14.1558    0.9986    7.2675 C   0  0  0  0  0  0  0  0  0  0  0  0
   13.5113    3.1653    8.0543 O   0  0  0  0  0  0  0  0  0  0  0  0
   14.8365    3.6188    7.8579 C   0  0  0  0  0  0  0  0  0  0  0  0
   11.5486    0.1385    7.6654 C   0  0  0  0  0  0  0  0  0  0  0  0
   12.4981   -0.7339    7.1770 C   0  0  0  0  0  0  0  0  0  0  0  0
   13.8160   -0.2967    6.9767 C   0  0  0  0  0  0  0  0  0  0  0  0
   14.7072   -1.1833    6.4989 N   0  0  0  0  0  0  0  0  0  0  0  0
   14.3779   -2.4522    6.2124 C   0  0  0  0  0  0  0  0  0  0  0  0
   13.1126   -2.8382    6.4138 N   0  0  0  0  0  0  0  0  0  0  0  0
   12.1513   -2.0301    6.8864 C   0  0  0  0  0  0  0  0  0  0  0  0
   10.8287   -2.4790    7.0486 N   0  0  0  0  0  0  0  0  0  0  0  0
   10.5599   -3.8767    6.9164 C   0  0  0  0  0  0  0  0  0  0  0  0
   11.3608   -4.7806    7.5483 C   0  0  0  0  0  0  0  0  0  0  0  0
   11.1309   -6.1595    7.4144 C   0  0  0  0  0  0  0  0  0  0  0  0
   12.1727   -7.3211    8.2338 Cl  0  0  0  0  0  0  0  0  0  0  0  0
   10.0922   -6.6277    6.6427 C   0  0  0  0  0  0  0  0  0  0  0  0
    9.8497   -7.9378    6.4963 F   0  0  0  0  0  0  0  0  0  0  0  0
    9.2817   -5.6895    6.0037 C   0  0  0  0  0  0  0  0  0  0  0  0
    9.5140   -4.3391    6.1399 C   0  0  0  0  0  0  0  0  0  0  0  0
 20 19  2  0
 20 21  1  0
 18 13  1  0
 18 17  2  0
 18 19  1  0
 17 16  1  0
 17 22  1  0
 22 21  2  0
 22 23  1  0
 15 14  1  0
 30 28  1  0
 30 31  2  0
 31 24  1  0
 25 24  2  0
 25 26  1  0
 13 12  2  0
 16 11  2  0
  8  7  1  0
  8  9  1  0
  9 10  1  0
  2  1  1  0
  2  3  1  0
  4  3  1  0
  4  5  1  0
  7  6  1  0
  1  6  1  0
  5  6  1  0
 28 26  2  0
 28 29  1  0
 26 27  1  0
 24 23  1  0
 12 11  1  0
 12 14  1  0
 11 10  1  0
M  CHG  1   6   1
M  END
$$$$
