
     RDKit          3D

 31 34  0  0  0  0  0  0  0  0999 V2000
    6.3109    5.4568    7.6790 C   0  0  0  0  0  0  0  0  0  0  0  0
    5.4026    4.9579    6.5939 C   0  0  0  0  0  0  0  0  0  0  0  0
    4.1753    4.6038    7.0986 O   0  0  0  0  0  0  0  0  0  0  0  0
    4.2715    4.3027    8.4344 C   0  0  0  0  0  0  0  0  0  0  0  0
    5.5291    3.5444    8.8008 C   0  0  0  0  0  0  0  0  0  0  0  0
    6.6812    4.3842    8.6111 N   0  0  0  0  0  4  0  0  0  0  0  0
    7.7938    3.6927    8.0114 C   0  0  0  0  0  0  0  0  0  0  0  0
    8.9049    3.3590    8.9531 C   0  0  0  0  0  0  0  0  0  0  0  0
    9.5969    2.0509    8.6306 C   0  0  0  0  0  0  0  0  0  0  0  0
   10.4380    2.1808    7.5009 O   0  0  0  0  0  0  0  0  0  0  0  0
   11.4645    1.3159    7.2399 C   0  0  0  0  0  0  0  0  0  0  0  0
   12.7588    1.7554    7.1435 C   0  0  0  0  0  0  0  0  0  0  0  0
   13.8020    0.9129    6.8849 C   0  0  0  0  0  0  0  0  0  0  0  0
   12.9685    3.1135    7.3227 O   0  0  0  0  0  0  0  0  0  0  0  0
   14.2932    3.6085    7.3021 C   0  0  0  0  0  0  0  0  0  0  0  0
   11.2058   -0.0476    7.0660 C   0  0  0  0  0  0  0  0  0  0  0  0
   12.2469   -0.9127    6.8038 C   0  0  0  0  0  0  0  0  0  0  0  0
   13.5591   -0.4247    6.7128 C   0  0  0  0  0  0  0  0  0  0  0  0
   14.5417   -1.3062    6.4556 N   0  0  0  0  0  0  0  0  0  0  0  0
   14.3075   -2.6165    6.2859 C   0  0  0  0  0  0  0  0  0  0  0  0
   13.0451   -3.0505    6.3782 N   0  0  0  0  0  0  0  0  0  0  0  0
   11.9971   -2.2516    6.6311 C   0  0  0  0  0  0  0  0  0  0  0  0
   10.6856   -2.7558    6.6855 N   0  0  0  0  0  0  0  0  0  0  0  0
   10.4975   -4.1729    6.6924 C   0  0  0  0  0  0  0  0  0  0  0  0
   11.4044   -4.9708    7.3238 C   0  0  0  0  0  0  0  0  0  0  0  0
   11.2537   -6.3670    7.3241 C   0  0  0  0  0  0  0  0  0  0  0  0
   12.4321   -7.3912    8.1417 Cl  0  0  0  0  0  0  0  0  0  0  0  0
   10.1873   -6.9595    6.6873 C   0  0  0  0  0  0  0  0  0  0  0  0
   10.0185   -8.2891    6.6707 F   0  0  0  0  0  0  0  0  0  0  0  0
    9.2682   -6.1286    6.0469 C   0  0  0  0  0  0  0  0  0  0  0  0
    9.4233   -4.7603    6.0510 C   0  0  0  0  0  0  0  0  0  0  0  0
 20 19  2  0
 20 21  1  0
 18 13  1  0
 18 17  2  0
 18 19  1  0
 17 16  1  0
 17 22  1  0
 22 21  2  0
 22 23  1  0
 15 14  1  0
 30 28  1  0
 30 31  2  0
 31 24  1  0
 25 24  2  0
 25 26  1  0
 13 12  2  0
 16 11  2  0
  8  7  1  0
  8  9  1  0
  9 10  1  0
  2  1  1  0
  2  3  1  0
  4  3  1  0
  4  5  1  0
  7  6  1  0
  1  6  1  0
  5  6  1  0
 28 26  2  0
 28 29  1  0
 26 27  1  0
 24 23  1  0
 12 11  1  0
 12 14  1  0
 11 10  1  0
M  CHG  1   6   1
M  END
$$$$
