
     RDKit          3D

 31 34  0  0  0  0  0  0  0  0999 V2000
    6.5466    5.3302    9.5892 C   0  0  0  0  0  0  0  0  0  0  0  0
    5.8394    6.2736    8.6611 C   0  0  0  0  0  0  0  0  0  0  0  0
    4.4767    6.1828    8.8058 O   0  0  0  0  0  0  0  0  0  0  0  0
    4.1269    4.9611    9.3247 C   0  0  0  0  0  0  0  0  0  0  0  0
    4.9457    3.8096    8.7820 C   0  0  0  0  0  0  0  0  0  0  0  0
    6.3103    3.9286    9.2203 N   0  0  0  0  0  4  0  0  0  0  0  0
    7.2662    3.6147    8.1890 C   0  0  0  0  0  0  0  0  0  0  0  0
    8.6713    3.4453    8.6681 C   0  0  0  0  0  0  0  0  0  0  0  0
    9.4901    2.4997    7.8141 C   0  0  0  0  0  0  0  0  0  0  0  0
   10.8231    2.4131    8.2789 O   0  0  0  0  0  0  0  0  0  0  0  0
   11.7251    1.5171    7.7754 C   0  0  0  0  0  0  0  0  0  0  0  0
   13.0254    1.8753    7.5336 C   0  0  0  0  0  0  0  0  0  0  0  0
   13.9461    1.0001    7.0322 C   0  0  0  0  0  0  0  0  0  0  0  0
   13.3732    3.1850    7.8242 O   0  0  0  0  0  0  0  0  0  0  0  0
   14.7202    3.5854    7.6646 C   0  0  0  0  0  0  0  0  0  0  0  0
   11.3294    0.2049    7.4967 C   0  0  0  0  0  0  0  0  0  0  0  0
   12.2456   -0.6922    6.9897 C   0  0  0  0  0  0  0  0  0  0  0  0
   13.5684   -0.2878    6.7558 C   0  0  0  0  0  0  0  0  0  0  0  0
   14.4262   -1.1976    6.2607 N   0  0  0  0  0  0  0  0  0  0  0  0
   14.0597   -2.4594    5.9883 C   0  0  0  0  0  0  0  0  0  0  0  0
   12.7907   -2.8138    6.2218 N   0  0  0  0  0  0  0  0  0  0  0  0
   11.8609   -1.9809    6.7135 C   0  0  0  0  0  0  0  0  0  0  0  0
   10.5321   -2.3970    6.9096 N   0  0  0  0  0  0  0  0  0  0  0  0
   10.2393   -3.7954    6.8617 C   0  0  0  0  0  0  0  0  0  0  0  0
   11.0442   -4.6762    7.5206 C   0  0  0  0  0  0  0  0  0  0  0  0
   10.7906   -6.0565    7.4689 C   0  0  0  0  0  0  0  0  0  0  0  0
   11.8377   -7.1883    8.3227 Cl  0  0  0  0  0  0  0  0  0  0  0  0
    9.7242   -6.5493    6.7524 C   0  0  0  0  0  0  0  0  0  0  0  0
    9.4586   -7.8614    6.6849 F   0  0  0  0  0  0  0  0  0  0  0  0
    8.9101   -5.6345    6.0849 C   0  0  0  0  0  0  0  0  0  0  0  0
    9.1657   -4.2825    6.1403 C   0  0  0  0  0  0  0  0  0  0  0  0
 20 19  2  0
 20 21  1  0
 18 13  1  0
 18 17  2  0
 18 19  1  0
 17 16  1  0
 17 22  1  0
 22 21  2  0
 22 23  1  0
 15 14  1  0
 30 28  1  0
 30 31  2  0
 31 24  1  0
 25 24  2  0
 25 26  1  0
 13 12  2  0
 16 11  2  0
  8  7  1  0
  8  9  1  0
  9 10  1  0
  2  1  1  0
  2  3  1  0
  4  3  1  0
  4  5  1  0
  7  6  1  0
  1  6  1  0
  5  6  1  0
 28 26  2  0
 28 29  1  0
 26 27  1  0
 24 23  1  0
 12 11  1  0
 12 14  1  0
 11 10  1  0
M  CHG  1   6   1
M  END
$$$$
