
     RDKit          3D

 31 34  0  0  0  0  0  0  0  0999 V2000
    5.9675    4.9778    8.1036 C   0  0  0  0  0  0  0  0  0  0  0  0
    5.0417    5.2446    9.2539 C   0  0  0  0  0  0  0  0  0  0  0  0
    5.2440    6.5004    9.7720 O   0  0  0  0  0  0  0  0  0  0  0  0
    6.5108    6.9432    9.4833 C   0  0  0  0  0  0  0  0  0  0  0  0
    7.5704    5.8664    9.5760 C   0  0  0  0  0  0  0  0  0  0  0  0
    7.3656    4.8865    8.5435 N   0  0  0  0  0  4  0  0  0  0  0  0
    7.5589    3.5336    8.9998 C   0  0  0  0  0  0  0  0  0  0  0  0
    8.9687    3.1878    9.3540 C   0  0  0  0  0  0  0  0  0  0  0  0
    9.5316    2.0414    8.5397 C   0  0  0  0  0  0  0  0  0  0  0  0
   10.7393    2.4097    7.9024 O   0  0  0  0  0  0  0  0  0  0  0  0
   11.7183    1.5062    7.5943 C   0  0  0  0  0  0  0  0  0  0  0  0
   13.0327    1.8832    7.5046 C   0  0  0  0  0  0  0  0  0  0  0  0
   14.0296    1.0009    7.1998 C   0  0  0  0  0  0  0  0  0  0  0  0
   13.3128    3.2198    7.7404 O   0  0  0  0  0  0  0  0  0  0  0  0
   14.6588    3.6526    7.7020 C   0  0  0  0  0  0  0  0  0  0  0  0
   11.3891    0.1664    7.3641 C   0  0  0  0  0  0  0  0  0  0  0  0
   12.3827   -0.7381    7.0547 C   0  0  0  0  0  0  0  0  0  0  0  0
   13.7174   -0.3138    6.9723 C   0  0  0  0  0  0  0  0  0  0  0  0
   14.6517   -1.2318    6.6677 N   0  0  0  0  0  0  0  0  0  0  0  0
   14.3496   -2.5199    6.4437 C   0  0  0  0  0  0  0  0  0  0  0  0
   13.0674   -2.8929    6.5293 N   0  0  0  0  0  0  0  0  0  0  0  0
   12.0635   -2.0538    6.8265 C   0  0  0  0  0  0  0  0  0  0  0  0
   10.7284   -2.4927    6.8715 N   0  0  0  0  0  0  0  0  0  0  0  0
   10.4704   -3.8987    6.8707 C   0  0  0  0  0  0  0  0  0  0  0  0
   11.2978   -4.7369    7.5568 C   0  0  0  0  0  0  0  0  0  0  0  0
   11.0785   -6.1240    7.5515 C   0  0  0  0  0  0  0  0  0  0  0  0
   12.1545   -7.2005    8.4401 Cl  0  0  0  0  0  0  0  0  0  0  0  0
   10.0237   -6.6667    6.8540 C   0  0  0  0  0  0  0  0  0  0  0  0
    9.7907   -7.9865    6.8306 F   0  0  0  0  0  0  0  0  0  0  0  0
    9.1862   -5.7950    6.1582 C   0  0  0  0  0  0  0  0  0  0  0  0
    9.4083   -4.4360    6.1682 C   0  0  0  0  0  0  0  0  0  0  0  0
 20 19  2  0
 20 21  1  0
 18 13  1  0
 18 17  2  0
 18 19  1  0
 17 16  1  0
 17 22  1  0
 22 21  2  0
 22 23  1  0
 15 14  1  0
 30 28  1  0
 30 31  2  0
 31 24  1  0
 25 24  2  0
 25 26  1  0
 13 12  2  0
 16 11  2  0
  8  7  1  0
  8  9  1  0
  9 10  1  0
  2  1  1  0
  2  3  1  0
  4  3  1  0
  4  5  1  0
  7  6  1  0
  1  6  1  0
  5  6  1  0
 28 26  2  0
 28 29  1  0
 26 27  1  0
 24 23  1  0
 12 11  1  0
 12 14  1  0
 11 10  1  0
M  CHG  1   6   1
M  END
$$$$
