
     RDKit          3D

 31 34  0  0  0  0  0  0  0  0999 V2000
    5.7531    3.0625    6.8807 C   0  0  0  0  0  0  0  0  0  0  0  0
    4.5881    2.2219    7.3139 C   0  0  0  0  0  0  0  0  0  0  0  0
    3.5674    3.0021    7.7994 O   0  0  0  0  0  0  0  0  0  0  0  0
    4.0500    4.2095    8.2391 C   0  0  0  0  0  0  0  0  0  0  0  0
    5.3821    4.1123    8.9512 C   0  0  0  0  0  0  0  0  0  0  0  0
    6.4062    3.7133    8.0236 N   0  0  0  0  0  4  0  0  0  0  0  0
    7.3215    2.7452    8.5721 C   0  0  0  0  0  0  0  0  0  0  0  0
    8.5100    2.4516    7.7154 C   0  0  0  0  0  0  0  0  0  0  0  0
    9.7080    1.9523    8.4961 C   0  0  0  0  0  0  0  0  0  0  0  0
   10.9199    2.3265    7.8702 O   0  0  0  0  0  0  0  0  0  0  0  0
   11.8539    1.4147    7.4626 C   0  0  0  0  0  0  0  0  0  0  0  0
   13.1507    1.7843    7.2188 C   0  0  0  0  0  0  0  0  0  0  0  0
   14.1029    0.8938    6.8121 C   0  0  0  0  0  0  0  0  0  0  0  0
   13.4609    3.1219    7.4056 O   0  0  0  0  0  0  0  0  0  0  0  0
   14.7425    3.5851    7.0271 C   0  0  0  0  0  0  0  0  0  0  0  0
   11.4956    0.0742    7.2870 C   0  0  0  0  0  0  0  0  0  0  0  0
   12.4439   -0.8386    6.8764 C   0  0  0  0  0  0  0  0  0  0  0  0
   13.7619   -0.4219    6.6370 C   0  0  0  0  0  0  0  0  0  0  0  0
   14.6519   -1.3478    6.2381 N   0  0  0  0  0  0  0  0  0  0  0  0
   14.3215   -2.6368    6.0650 C   0  0  0  0  0  0  0  0  0  0  0  0
   13.0561   -3.0025    6.3010 N   0  0  0  0  0  0  0  0  0  0  0  0
   12.0959   -2.1551    6.7014 C   0  0  0  0  0  0  0  0  0  0  0  0
   10.7731   -2.5869    6.9040 N   0  0  0  0  0  0  0  0  0  0  0  0
   10.5020   -3.9903    6.8886 C   0  0  0  0  0  0  0  0  0  0  0  0
   11.3599   -4.8502    7.5070 C   0  0  0  0  0  0  0  0  0  0  0  0
   11.1273   -6.2349    7.4853 C   0  0  0  0  0  0  0  0  0  0  0  0
   12.2429   -7.3394    8.2863 Cl  0  0  0  0  0  0  0  0  0  0  0  0
   10.0284   -6.7535    6.8396 C   0  0  0  0  0  0  0  0  0  0  0  0
    9.7816   -8.0704    6.8020 F   0  0  0  0  0  0  0  0  0  0  0  0
    9.1601   -5.8599    6.2126 C   0  0  0  0  0  0  0  0  0  0  0  0
    9.3955   -4.5033    6.2383 C   0  0  0  0  0  0  0  0  0  0  0  0
 20 19  2  0
 20 21  1  0
 18 13  1  0
 18 17  2  0
 18 19  1  0
 17 16  1  0
 17 22  1  0
 22 21  2  0
 22 23  1  0
 15 14  1  0
 30 28  1  0
 30 31  2  0
 31 24  1  0
 25 24  2  0
 25 26  1  0
 13 12  2  0
 16 11  2  0
  8  7  1  0
  8  9  1  0
  9 10  1  0
  2  1  1  0
  2  3  1  0
  4  3  1  0
  4  5  1  0
  7  6  1  0
  1  6  1  0
  5  6  1  0
 28 26  2  0
 28 29  1  0
 26 27  1  0
 24 23  1  0
 12 11  1  0
 12 14  1  0
 11 10  1  0
M  CHG  1   6   1
M  END
$$$$
