
     RDKit          3D

 31 34  0  0  0  0  0  0  0  0999 V2000
    5.5800    3.4551    9.3569 C   0  0  0  0  0  0  0  0  0  0  0  0
    5.1378    4.7366   10.0002 C   0  0  0  0  0  0  0  0  0  0  0  0
    4.3257    5.4584    9.1602 O   0  0  0  0  0  0  0  0  0  0  0  0
    4.5552    5.1123    7.8519 C   0  0  0  0  0  0  0  0  0  0  0  0
    6.0145    4.8705    7.5308 C   0  0  0  0  0  0  0  0  0  0  0  0
    6.4821    3.7007    8.2245 N   0  0  0  0  0  4  0  0  0  0  0  0
    7.7998    3.8628    8.7842 C   0  0  0  0  0  0  0  0  0  0  0  0
    8.4302    2.6009    9.2771 C   0  0  0  0  0  0  0  0  0  0  0  0
    9.1598    1.8291    8.1973 C   0  0  0  0  0  0  0  0  0  0  0  0
   10.4857    2.2958    8.0406 O   0  0  0  0  0  0  0  0  0  0  0  0
   11.5142    1.4835    7.6504 C   0  0  0  0  0  0  0  0  0  0  0  0
   12.7855    1.9701    7.4929 C   0  0  0  0  0  0  0  0  0  0  0  0
   13.8302    1.1806    7.1055 C   0  0  0  0  0  0  0  0  0  0  0  0
   12.9699    3.3198    7.7479 O   0  0  0  0  0  0  0  0  0  0  0  0
   14.2760    3.8570    7.6716 C   0  0  0  0  0  0  0  0  0  0  0  0
   11.2815    0.1266    7.4037 C   0  0  0  0  0  0  0  0  0  0  0  0
   12.3246   -0.6854    7.0112 C   0  0  0  0  0  0  0  0  0  0  0  0
   13.6127   -0.1502    6.8612 C   0  0  0  0  0  0  0  0  0  0  0  0
   14.5982   -0.9806    6.4767 N   0  0  0  0  0  0  0  0  0  0  0  0
   14.3887   -2.2840    6.2361 C   0  0  0  0  0  0  0  0  0  0  0  0
   13.1488   -2.7638    6.3876 N   0  0  0  0  0  0  0  0  0  0  0  0
   12.1001   -2.0176    6.7668 C   0  0  0  0  0  0  0  0  0  0  0  0
   10.8105   -2.5666    6.8792 N   0  0  0  0  0  0  0  0  0  0  0  0
   10.6453   -3.9718    6.6753 C   0  0  0  0  0  0  0  0  0  0  0  0
   10.5894   -4.8076    7.7505 C   0  0  0  0  0  0  0  0  0  0  0  0
   10.4512   -6.1940    7.5748 C   0  0  0  0  0  0  0  0  0  0  0  0
   10.3815   -7.2674    8.9709 Cl  0  0  0  0  0  0  0  0  0  0  0  0
   10.3690   -6.7384    6.3137 C   0  0  0  0  0  0  0  0  0  0  0  0
   10.2376   -8.0576    6.1160 F   0  0  0  0  0  0  0  0  0  0  0  0
   10.4269   -5.8692    5.2245 C   0  0  0  0  0  0  0  0  0  0  0  0
   10.5628   -4.5108    5.4053 C   0  0  0  0  0  0  0  0  0  0  0  0
 20 19  2  0
 20 21  1  0
 18 13  1  0
 18 17  2  0
 18 19  1  0
 17 16  1  0
 17 22  1  0
 22 21  2  0
 22 23  1  0
 15 14  1  0
 30 28  1  0
 30 31  2  0
 31 24  1  0
 25 24  2  0
 25 26  1  0
 13 12  2  0
 16 11  2  0
  8  7  1  0
  8  9  1  0
  9 10  1  0
  2  1  1  0
  2  3  1  0
  4  3  1  0
  4  5  1  0
  7  6  1  0
  1  6  1  0
  5  6  1  0
 28 26  2  0
 28 29  1  0
 26 27  1  0
 24 23  1  0
 12 11  1  0
 12 14  1  0
 11 10  1  0
M  CHG  1   6   1
M  END
$$$$
