
     RDKit          3D

 31 34  0  0  0  0  0  0  0  0999 V2000
    6.3269    4.9836    8.0829 C   0  0  0  0  0  0  0  0  0  0  0  0
    5.0456    4.3144    8.4854 C   0  0  0  0  0  0  0  0  0  0  0  0
    4.3484    5.0806    9.3872 O   0  0  0  0  0  0  0  0  0  0  0  0
    5.1942    5.9331   10.0519 C   0  0  0  0  0  0  0  0  0  0  0  0
    6.5321    5.3174   10.4010 C   0  0  0  0  0  0  0  0  0  0  0  0
    7.2774    5.0503    9.2003 N   0  0  0  0  0  4  0  0  0  0  0  0
    7.9601    3.7818    9.2276 C   0  0  0  0  0  0  0  0  0  0  0  0
    9.0286    3.6236    8.1952 C   0  0  0  0  0  0  0  0  0  0  0  0
    9.5642    2.2105    8.0929 C   0  0  0  0  0  0  0  0  0  0  0  0
   10.8626    2.1131    8.6453 O   0  0  0  0  0  0  0  0  0  0  0  0
   11.7958    1.2243    8.1884 C   0  0  0  0  0  0  0  0  0  0  0  0
   13.0885    1.6099    7.9476 C   0  0  0  0  0  0  0  0  0  0  0  0
   14.0399    0.7423    7.4923 C   0  0  0  0  0  0  0  0  0  0  0  0
   13.3953    2.9394    8.1897 O   0  0  0  0  0  0  0  0  0  0  0  0
   14.7216    3.3835    7.9796 C   0  0  0  0  0  0  0  0  0  0  0  0
   11.4410   -0.1088    7.9577 C   0  0  0  0  0  0  0  0  0  0  0  0
   12.3886   -0.9985    7.4975 C   0  0  0  0  0  0  0  0  0  0  0  0
   13.7023   -0.5658    7.2630 C   0  0  0  0  0  0  0  0  0  0  0  0
   14.5917   -1.4694    6.8146 N   0  0  0  0  0  0  0  0  0  0  0  0
   14.2646   -2.7510    6.5884 C   0  0  0  0  0  0  0  0  0  0  0  0
   13.0032   -3.1323    6.8212 N   0  0  0  0  0  0  0  0  0  0  0  0
   12.0440   -2.3076    7.2685 C   0  0  0  0  0  0  0  0  0  0  0  0
   10.7251   -2.7537    7.4656 N   0  0  0  0  0  0  0  0  0  0  0  0
   10.4573   -4.1553    7.3797 C   0  0  0  0  0  0  0  0  0  0  0  0
   11.2591   -5.0372    8.0408 C   0  0  0  0  0  0  0  0  0  0  0  0
   11.0302   -6.4199    7.9525 C   0  0  0  0  0  0  0  0  0  0  0  0
   12.0732   -7.5531    8.8095 Cl  0  0  0  0  0  0  0  0  0  0  0  0
    9.9916   -6.9141    7.1972 C   0  0  0  0  0  0  0  0  0  0  0  0
    9.7500   -8.2285    7.0942 F   0  0  0  0  0  0  0  0  0  0  0  0
    9.1802   -5.9981    6.5279 C   0  0  0  0  0  0  0  0  0  0  0  0
    9.4115   -4.6437    6.6193 C   0  0  0  0  0  0  0  0  0  0  0  0
 20 19  2  0
 20 21  1  0
 18 13  1  0
 18 17  2  0
 18 19  1  0
 17 16  1  0
 17 22  1  0
 22 21  2  0
 22 23  1  0
 15 14  1  0
 30 28  1  0
 30 31  2  0
 31 24  1  0
 25 24  2  0
 25 26  1  0
 13 12  2  0
 16 11  2  0
  8  7  1  0
  8  9  1  0
  9 10  1  0
  2  1  1  0
  2  3  1  0
  4  3  1  0
  4  5  1  0
  7  6  1  0
  1  6  1  0
  5  6  1  0
 28 26  2  0
 28 29  1  0
 26 27  1  0
 24 23  1  0
 12 11  1  0
 12 14  1  0
 11 10  1  0
M  CHG  1   6   1
M  END
$$$$
