
     RDKit          3D

 31 34  0  0  0  0  0  0  0  0999 V2000
    6.1092    4.1561   10.2995 C   0  0  0  0  0  0  0  0  0  0  0  0
    6.3907    4.9336   11.5516 C   0  0  0  0  0  0  0  0  0  0  0  0
    6.0275    6.2505   11.4094 O   0  0  0  0  0  0  0  0  0  0  0  0
    6.0132    6.6067   10.0839 C   0  0  0  0  0  0  0  0  0  0  0  0
    7.1426    6.0035    9.2768 C   0  0  0  0  0  0  0  0  0  0  0  0
    6.9786    4.5771    9.1935 N   0  0  0  0  0  4  0  0  0  0  0  0
    8.2148    3.8544    9.3525 C   0  0  0  0  0  0  0  0  0  0  0  0
    9.1569    3.9636    8.1979 C   0  0  0  0  0  0  0  0  0  0  0  0
    9.7786    2.6412    7.7991 C   0  0  0  0  0  0  0  0  0  0  0  0
   11.0752    2.4988    8.3458 O   0  0  0  0  0  0  0  0  0  0  0  0
   11.9641    1.5576    7.9054 C   0  0  0  0  0  0  0  0  0  0  0  0
   13.2750    1.8745    7.6633 C   0  0  0  0  0  0  0  0  0  0  0  0
   14.1831    0.9537    7.2242 C   0  0  0  0  0  0  0  0  0  0  0  0
   13.6473    3.1905    7.8865 O   0  0  0  0  0  0  0  0  0  0  0  0
   14.9517    3.4600    8.3624 C   0  0  0  0  0  0  0  0  0  0  0  0
   11.5436    0.2406    7.6935 C   0  0  0  0  0  0  0  0  0  0  0  0
   12.4467   -0.7022    7.2500 C   0  0  0  0  0  0  0  0  0  0  0  0
   13.7811   -0.3393    7.0134 C   0  0  0  0  0  0  0  0  0  0  0  0
   14.6253   -1.2928    6.5816 N   0  0  0  0  0  0  0  0  0  0  0  0
   14.2351   -2.5597    6.3736 C   0  0  0  0  0  0  0  0  0  0  0  0
   12.9557   -2.8740    6.6077 N   0  0  0  0  0  0  0  0  0  0  0  0
   12.0377   -1.9957    7.0394 C   0  0  0  0  0  0  0  0  0  0  0  0
   10.6977   -2.3724    7.2387 N   0  0  0  0  0  0  0  0  0  0  0  0
   10.3527   -3.7553    7.1300 C   0  0  0  0  0  0  0  0  0  0  0  0
   11.1704   -4.6996    7.6755 C   0  0  0  0  0  0  0  0  0  0  0  0
   10.8648   -6.0655    7.5614 C   0  0  0  0  0  0  0  0  0  0  0  0
   11.9288   -7.2797    8.2684 Cl  0  0  0  0  0  0  0  0  0  0  0  0
    9.7334   -6.4800    6.8968 C   0  0  0  0  0  0  0  0  0  0  0  0
    9.4171   -7.7765    6.7717 F   0  0  0  0  0  0  0  0  0  0  0  0
    8.9071   -5.5009    6.3453 C   0  0  0  0  0  0  0  0  0  0  0  0
    9.2140   -4.1636    6.4614 C   0  0  0  0  0  0  0  0  0  0  0  0
 20 19  2  0
 20 21  1  0
 18 13  1  0
 18 17  2  0
 18 19  1  0
 17 16  1  0
 17 22  1  0
 22 21  2  0
 22 23  1  0
 15 14  1  0
 30 28  1  0
 30 31  2  0
 31 24  1  0
 25 24  2  0
 25 26  1  0
 13 12  2  0
 16 11  2  0
  8  7  1  0
  8  9  1  0
  9 10  1  0
  2  1  1  0
  2  3  1  0
  4  3  1  0
  4  5  1  0
  7  6  1  0
  1  6  1  0
  5  6  1  0
 28 26  2  0
 28 29  1  0
 26 27  1  0
 24 23  1  0
 12 11  1  0
 12 14  1  0
 11 10  1  0
M  CHG  1   6   1
M  END
$$$$
