
     RDKit          3D

 31 34  0  0  0  0  0  0  0  0999 V2000
    5.5267    4.3462    9.0949 C   0  0  0  0  0  0  0  0  0  0  0  0
    5.1743    5.3595    8.0458 C   0  0  0  0  0  0  0  0  0  0  0  0
    4.1803    4.8934    7.2205 O   0  0  0  0  0  0  0  0  0  0  0  0
    4.1524    3.5210    7.2262 C   0  0  0  0  0  0  0  0  0  0  0  0
    5.5242    2.8821    7.2556 C   0  0  0  0  0  0  0  0  0  0  0  0
    6.1691    3.1622    8.5102 N   0  0  0  0  0  4  0  0  0  0  0  0
    7.5656    3.4873    8.3693 C   0  0  0  0  0  0  0  0  0  0  0  0
    8.4097    2.3914    7.8044 C   0  0  0  0  0  0  0  0  0  0  0  0
    9.1980    1.6351    8.8535 C   0  0  0  0  0  0  0  0  0  0  0  0
   10.5736    1.9581    8.7929 O   0  0  0  0  0  0  0  0  0  0  0  0
   11.5034    1.1301    8.2275 C   0  0  0  0  0  0  0  0  0  0  0  0
   12.7426    1.5913    7.8677 C   0  0  0  0  0  0  0  0  0  0  0  0
   13.6893    0.7855    7.3025 C   0  0  0  0  0  0  0  0  0  0  0  0
   12.9993    2.9322    8.1055 O   0  0  0  0  0  0  0  0  0  0  0  0
   14.3280    3.4036    7.9926 C   0  0  0  0  0  0  0  0  0  0  0  0
   11.2002   -0.2172    8.0057 C   0  0  0  0  0  0  0  0  0  0  0  0
   12.1439   -1.0452    7.4357 C   0  0  0  0  0  0  0  0  0  0  0  0
   13.4021   -0.5360    7.0810 C   0  0  0  0  0  0  0  0  0  0  0  0
   14.2899   -1.3813    6.5281 N   0  0  0  0  0  0  0  0  0  0  0  0
   14.0120   -2.6757    6.3092 C   0  0  0  0  0  0  0  0  0  0  0  0
   12.8029   -3.1307    6.6580 N   0  0  0  0  0  0  0  0  0  0  0  0
   11.8498   -2.3680    7.2150 C   0  0  0  0  0  0  0  0  0  0  0  0
   10.5836   -2.8904    7.5327 N   0  0  0  0  0  0  0  0  0  0  0  0
   10.3568   -4.2904    7.3535 C   0  0  0  0  0  0  0  0  0  0  0  0
   11.2199   -5.1897    7.9049 C   0  0  0  0  0  0  0  0  0  0  0  0
   11.0312   -6.5694    7.7229 C   0  0  0  0  0  0  0  0  0  0  0  0
   12.1533   -7.7250    8.4383 Cl  0  0  0  0  0  0  0  0  0  0  0  0
    9.9711   -7.0429    6.9844 C   0  0  0  0  0  0  0  0  0  0  0  0
    9.7668   -8.3538    6.7935 F   0  0  0  0  0  0  0  0  0  0  0  0
    9.0970   -6.1093    6.4278 C   0  0  0  0  0  0  0  0  0  0  0  0
    9.2891   -4.7581    6.6107 C   0  0  0  0  0  0  0  0  0  0  0  0
 20 19  2  0
 20 21  1  0
 18 13  1  0
 18 17  2  0
 18 19  1  0
 17 16  1  0
 17 22  1  0
 22 21  2  0
 22 23  1  0
 15 14  1  0
 30 28  1  0
 30 31  2  0
 31 24  1  0
 25 24  2  0
 25 26  1  0
 13 12  2  0
 16 11  2  0
  8  7  1  0
  8  9  1  0
  9 10  1  0
  2  1  1  0
  2  3  1  0
  4  3  1  0
  4  5  1  0
  7  6  1  0
  1  6  1  0
  5  6  1  0
 28 26  2  0
 28 29  1  0
 26 27  1  0
 24 23  1  0
 12 11  1  0
 12 14  1  0
 11 10  1  0
M  CHG  1   6   1
M  END
$$$$
