
     RDKit          3D

 31 34  0  0  0  0  0  0  0  0999 V2000
    6.7223    4.9660   10.4832 C   0  0  0  0  0  0  0  0  0  0  0  0
    7.2281    6.2669   11.0339 C   0  0  0  0  0  0  0  0  0  0  0  0
    6.4649    7.3211   10.5951 O   0  0  0  0  0  0  0  0  0  0  0  0
    5.8258    6.9996    9.4237 C   0  0  0  0  0  0  0  0  0  0  0  0
    6.6709    6.1811    8.4713 C   0  0  0  0  0  0  0  0  0  0  0  0
    6.9193    4.8796    9.0306 N   0  0  0  0  0  4  0  0  0  0  0  0
    8.2723    4.4262    8.8317 C   0  0  0  0  0  0  0  0  0  0  0  0
    8.4801    2.9623    9.0469 C   0  0  0  0  0  0  0  0  0  0  0  0
    9.3587    2.3166    7.9956 C   0  0  0  0  0  0  0  0  0  0  0  0
   10.7291    2.4560    8.3168 O   0  0  0  0  0  0  0  0  0  0  0  0
   11.6842    1.5819    7.8768 C   0  0  0  0  0  0  0  0  0  0  0  0
   12.9856    1.9758    7.7065 C   0  0  0  0  0  0  0  0  0  0  0  0
   13.9588    1.1230    7.2696 C   0  0  0  0  0  0  0  0  0  0  0  0
   13.2780    3.2979    8.0014 O   0  0  0  0  0  0  0  0  0  0  0  0
   14.6127    3.6498    8.3099 C   0  0  0  0  0  0  0  0  0  0  0  0
   11.3434    0.2559    7.5911 C   0  0  0  0  0  0  0  0  0  0  0  0
   12.3130   -0.6189    7.1486 C   0  0  0  0  0  0  0  0  0  0  0  0
   13.6350   -0.1781    6.9869 C   0  0  0  0  0  0  0  0  0  0  0  0
   14.5460   -1.0672    6.5530 N   0  0  0  0  0  0  0  0  0  0  0  0
   14.2325   -2.3419    6.2746 C   0  0  0  0  0  0  0  0  0  0  0  0
   12.9627   -2.7311    6.4384 N   0  0  0  0  0  0  0  0  0  0  0  0
   11.9822   -1.9210    6.8657 C   0  0  0  0  0  0  0  0  0  0  0  0
   10.6568   -2.3741    6.9893 N   0  0  0  0  0  0  0  0  0  0  0  0
   10.4026   -3.7777    6.8970 C   0  0  0  0  0  0  0  0  0  0  0  0
   11.2233   -4.6559    7.5397 C   0  0  0  0  0  0  0  0  0  0  0  0
   11.0078   -6.0403    7.4445 C   0  0  0  0  0  0  0  0  0  0  0  0
   12.0751   -7.1685    8.2776 Cl  0  0  0  0  0  0  0  0  0  0  0  0
    9.9634   -6.5400    6.7009 C   0  0  0  0  0  0  0  0  0  0  0  0
    9.7341   -7.8561    6.5917 F   0  0  0  0  0  0  0  0  0  0  0  0
    9.1325   -5.6278    6.0504 C   0  0  0  0  0  0  0  0  0  0  0  0
    9.3509   -4.2718    6.1485 C   0  0  0  0  0  0  0  0  0  0  0  0
 20 19  2  0
 20 21  1  0
 18 13  1  0
 18 17  2  0
 18 19  1  0
 17 16  1  0
 17 22  1  0
 22 21  2  0
 22 23  1  0
 15 14  1  0
 30 28  1  0
 30 31  2  0
 31 24  1  0
 25 24  2  0
 25 26  1  0
 13 12  2  0
 16 11  2  0
  8  7  1  0
  8  9  1  0
  9 10  1  0
  2  1  1  0
  2  3  1  0
  4  3  1  0
  4  5  1  0
  7  6  1  0
  1  6  1  0
  5  6  1  0
 28 26  2  0
 28 29  1  0
 26 27  1  0
 24 23  1  0
 12 11  1  0
 12 14  1  0
 11 10  1  0
M  CHG  1   6   1
M  END
$$$$
