
     RDKit          3D

 31 34  0  0  0  0  0  0  0  0999 V2000
    7.8946    6.4622    8.7293 C   0  0  0  0  0  0  0  0  0  0  0  0
    6.6975    6.4808    7.8247 C   0  0  0  0  0  0  0  0  0  0  0  0
    5.5319    6.5605    8.5468 O   0  0  0  0  0  0  0  0  0  0  0  0
    5.7201    6.0862    9.8210 C   0  0  0  0  0  0  0  0  0  0  0  0
    6.6168    4.8690    9.8936 C   0  0  0  0  0  0  0  0  0  0  0  0
    7.9586    5.2250    9.5177 N   0  0  0  0  0  4  0  0  0  0  0  0
    8.5914    4.2412    8.6766 C   0  0  0  0  0  0  0  0  0  0  0  0
    8.8308    2.9192    9.3306 C   0  0  0  0  0  0  0  0  0  0  0  0
    9.5346    1.9213    8.4345 C   0  0  0  0  0  0  0  0  0  0  0  0
   10.9063    2.2367    8.2942 O   0  0  0  0  0  0  0  0  0  0  0  0
   11.8185    1.3568    7.7808 C   0  0  0  0  0  0  0  0  0  0  0  0
   13.0854    1.7584    7.4472 C   0  0  0  0  0  0  0  0  0  0  0  0
   14.0156    0.9001    6.9340 C   0  0  0  0  0  0  0  0  0  0  0  0
   13.3887    3.0944    7.6562 O   0  0  0  0  0  0  0  0  0  0  0  0
   14.7409    3.4676    7.8368 C   0  0  0  0  0  0  0  0  0  0  0  0
   11.4682    0.0167    7.5867 C   0  0  0  0  0  0  0  0  0  0  0  0
   12.3945   -0.8637    7.0691 C   0  0  0  0  0  0  0  0  0  0  0  0
   13.6822   -0.4147    6.7399 C   0  0  0  0  0  0  0  0  0  0  0  0
   14.5514   -1.3099    6.2382 N   0  0  0  0  0  0  0  0  0  0  0  0
   14.2283   -2.5980    6.0463 C   0  0  0  0  0  0  0  0  0  0  0  0
   12.9920   -2.9949    6.3696 N   0  0  0  0  0  0  0  0  0  0  0  0
   12.0541   -2.1797    6.8757 C   0  0  0  0  0  0  0  0  0  0  0  0
   10.7589   -2.6425    7.1680 N   0  0  0  0  0  0  0  0  0  0  0  0
   10.5158   -4.0511    7.1499 C   0  0  0  0  0  0  0  0  0  0  0  0
   11.4273   -4.9003    7.7028 C   0  0  0  0  0  0  0  0  0  0  0  0
   11.2219   -6.2893    7.6763 C   0  0  0  0  0  0  0  0  0  0  0  0
   12.4067   -7.3800    8.3923 Cl  0  0  0  0  0  0  0  0  0  0  0  0
   10.0960   -6.8227    7.0919 C   0  0  0  0  0  0  0  0  0  0  0  0
    9.8742   -8.1440    7.0514 F   0  0  0  0  0  0  0  0  0  0  0  0
    9.1730   -5.9398    6.5317 C   0  0  0  0  0  0  0  0  0  0  0  0
    9.3820   -4.5791    6.5615 C   0  0  0  0  0  0  0  0  0  0  0  0
 20 19  2  0
 20 21  1  0
 18 13  1  0
 18 17  2  0
 18 19  1  0
 17 16  1  0
 17 22  1  0
 22 21  2  0
 22 23  1  0
 15 14  1  0
 30 28  1  0
 30 31  2  0
 31 24  1  0
 25 24  2  0
 25 26  1  0
 13 12  2  0
 16 11  2  0
  8  7  1  0
  8  9  1  0
  9 10  1  0
  2  1  1  0
  2  3  1  0
  4  3  1  0
  4  5  1  0
  7  6  1  0
  1  6  1  0
  5  6  1  0
 28 26  2  0
 28 29  1  0
 26 27  1  0
 24 23  1  0
 12 11  1  0
 12 14  1  0
 11 10  1  0
M  CHG  1   6   1
M  END
$$$$
