
     RDKit          3D

 31 34  0  0  0  0  0  0  0  0999 V2000
    6.7036    4.5468    6.9123 C   0  0  0  0  0  0  0  0  0  0  0  0
    5.2160    4.3513    6.9355 C   0  0  0  0  0  0  0  0  0  0  0  0
    4.5881    5.3995    7.5627 O   0  0  0  0  0  0  0  0  0  0  0  0
    5.4503    6.0345    8.4215 C   0  0  0  0  0  0  0  0  0  0  0  0
    6.3667    5.0936    9.1738 C   0  0  0  0  0  0  0  0  0  0  0  0
    7.2818    4.4648    8.2596 N   0  0  0  0  0  4  0  0  0  0  0  0
    7.4802    3.0637    8.5305 C   0  0  0  0  0  0  0  0  0  0  0  0
    8.5903    2.4278    7.7585 C   0  0  0  0  0  0  0  0  0  0  0  0
    9.6163    1.7384    8.6338 C   0  0  0  0  0  0  0  0  0  0  0  0
   10.9274    2.1674    8.3218 O   0  0  0  0  0  0  0  0  0  0  0  0
   11.8521    1.3504    7.7323 C   0  0  0  0  0  0  0  0  0  0  0  0
   13.0732    1.8279    7.3342 C   0  0  0  0  0  0  0  0  0  0  0  0
   14.0146    1.0335    6.7444 C   0  0  0  0  0  0  0  0  0  0  0  0
   13.3173    3.1734    7.5590 O   0  0  0  0  0  0  0  0  0  0  0  0
   14.6562    3.6152    7.6712 C   0  0  0  0  0  0  0  0  0  0  0  0
   11.5622   -0.0021    7.5250 C   0  0  0  0  0  0  0  0  0  0  0  0
   12.5007   -0.8188    6.9305 C   0  0  0  0  0  0  0  0  0  0  0  0
   13.7403   -0.2930    6.5367 C   0  0  0  0  0  0  0  0  0  0  0  0
   14.6236   -1.1278    5.9611 N   0  0  0  0  0  0  0  0  0  0  0  0
   14.3582   -2.4270    5.7556 C   0  0  0  0  0  0  0  0  0  0  0  0
   13.1668   -2.8979    6.1419 N   0  0  0  0  0  0  0  0  0  0  0  0
   12.2196   -2.1467    6.7239 C   0  0  0  0  0  0  0  0  0  0  0  0
   10.9710   -2.6860    7.0811 N   0  0  0  0  0  0  0  0  0  0  0  0
   10.7167   -4.0648    6.8023 C   0  0  0  0  0  0  0  0  0  0  0  0
   10.4873   -4.9299    7.8304 C   0  0  0  0  0  0  0  0  0  0  0  0
   10.2584   -6.2931    7.5831 C   0  0  0  0  0  0  0  0  0  0  0  0
    9.9642   -7.4048    8.9187 Cl  0  0  0  0  0  0  0  0  0  0  0  0
   10.2606   -6.7849    6.2979 C   0  0  0  0  0  0  0  0  0  0  0  0
   10.0459   -8.0811    6.0323 F   0  0  0  0  0  0  0  0  0  0  0  0
   10.4961   -5.8862    5.2575 C   0  0  0  0  0  0  0  0  0  0  0  0
   10.7199   -4.5509    5.5085 C   0  0  0  0  0  0  0  0  0  0  0  0
 20 19  2  0
 20 21  1  0
 18 13  1  0
 18 17  2  0
 18 19  1  0
 17 16  1  0
 17 22  1  0
 22 21  2  0
 22 23  1  0
 15 14  1  0
 30 28  1  0
 30 31  2  0
 31 24  1  0
 25 24  2  0
 25 26  1  0
 13 12  2  0
 16 11  2  0
  8  7  1  0
  8  9  1  0
  9 10  1  0
  2  1  1  0
  2  3  1  0
  4  3  1  0
  4  5  1  0
  7  6  1  0
  1  6  1  0
  5  6  1  0
 28 26  2  0
 28 29  1  0
 26 27  1  0
 24 23  1  0
 12 11  1  0
 12 14  1  0
 11 10  1  0
M  CHG  1   6   1
M  END
$$$$
