
     RDKit          3D

 31 34  0  0  0  0  0  0  0  0999 V2000
    6.4306    5.5321    9.4131 C   0  0  0  0  0  0  0  0  0  0  0  0
    5.9900    5.9072   10.7975 C   0  0  0  0  0  0  0  0  0  0  0  0
    5.8934    7.2704   10.9346 O   0  0  0  0  0  0  0  0  0  0  0  0
    6.6893    7.9055   10.0142 C   0  0  0  0  0  0  0  0  0  0  0  0
    8.0207    7.2236    9.7836 C   0  0  0  0  0  0  0  0  0  0  0  0
    7.8154    5.9467    9.1545 N   0  0  0  0  0  4  0  0  0  0  0  0
    8.6563    4.9080    9.6929 C   0  0  0  0  0  0  0  0  0  0  0  0
    8.6043    3.6125    8.9503 C   0  0  0  0  0  0  0  0  0  0  0  0
    9.8847    2.8093    9.0477 C   0  0  0  0  0  0  0  0  0  0  0  0
   10.3159    2.3752    7.7725 O   0  0  0  0  0  0  0  0  0  0  0  0
   11.3406    1.4861    7.6015 C   0  0  0  0  0  0  0  0  0  0  0  0
   12.6486    1.8937    7.6259 C   0  0  0  0  0  0  0  0  0  0  0  0
   13.6903    1.0265    7.4589 C   0  0  0  0  0  0  0  0  0  0  0  0
   12.8741    3.2456    7.8310 O   0  0  0  0  0  0  0  0  0  0  0  0
   14.2047    3.7011    7.9806 C   0  0  0  0  0  0  0  0  0  0  0  0
   11.0658    0.1300    7.3972 C   0  0  0  0  0  0  0  0  0  0  0  0
   12.1052   -0.7598    7.2263 C   0  0  0  0  0  0  0  0  0  0  0  0
   13.4316   -0.3041    7.2580 C   0  0  0  0  0  0  0  0  0  0  0  0
   14.4119   -1.2087    7.0867 N   0  0  0  0  0  0  0  0  0  0  0  0
   14.1623   -2.5123    6.8891 C   0  0  0  0  0  0  0  0  0  0  0  0
   12.8865   -2.9152    6.8635 N   0  0  0  0  0  0  0  0  0  0  0  0
   11.8397   -2.0915    7.0241 C   0  0  0  0  0  0  0  0  0  0  0  0
   10.5168   -2.5633    6.9559 N   0  0  0  0  0  0  0  0  0  0  0  0
   10.2971   -3.9733    6.8720 C   0  0  0  0  0  0  0  0  0  0  0  0
   11.1605   -4.8286    7.4892 C   0  0  0  0  0  0  0  0  0  0  0  0
   10.9789   -6.2183    7.4014 C   0  0  0  0  0  0  0  0  0  0  0  0
   12.1013   -7.3168    8.2013 Cl  0  0  0  0  0  0  0  0  0  0  0  0
    9.9255   -6.7465    6.6908 C   0  0  0  0  0  0  0  0  0  0  0  0
    9.7280   -8.0684    6.5894 F   0  0  0  0  0  0  0  0  0  0  0  0
    9.0509   -5.8575    6.0662 C   0  0  0  0  0  0  0  0  0  0  0  0
    9.2361   -4.4960    6.1568 C   0  0  0  0  0  0  0  0  0  0  0  0
 20 19  2  0
 20 21  1  0
 18 13  1  0
 18 17  2  0
 18 19  1  0
 17 16  1  0
 17 22  1  0
 22 21  2  0
 22 23  1  0
 15 14  1  0
 30 28  1  0
 30 31  2  0
 31 24  1  0
 25 24  2  0
 25 26  1  0
 13 12  2  0
 16 11  2  0
  8  7  1  0
  8  9  1  0
  9 10  1  0
  2  1  1  0
  2  3  1  0
  4  3  1  0
  4  5  1  0
  7  6  1  0
  1  6  1  0
  5  6  1  0
 28 26  2  0
 28 29  1  0
 26 27  1  0
 24 23  1  0
 12 11  1  0
 12 14  1  0
 11 10  1  0
M  CHG  1   6   1
M  END
$$$$
