
     RDKit          3D

 31 34  0  0  0  0  0  0  0  0999 V2000
    7.8891    5.0810    7.4298 C   0  0  0  0  0  0  0  0  0  0  0  0
    6.5446    5.7430    7.3543 C   0  0  0  0  0  0  0  0  0  0  0  0
    6.5074    6.8789    8.1255 O   0  0  0  0  0  0  0  0  0  0  0  0
    7.4540    6.8197    9.1178 C   0  0  0  0  0  0  0  0  0  0  0  0
    7.6071    5.4462    9.7350 C   0  0  0  0  0  0  0  0  0  0  0  0
    8.1475    4.5306    8.7665 N   0  0  0  0  0  4  0  0  0  0  0  0
    7.5187    3.2347    8.7993 C   0  0  0  0  0  0  0  0  0  0  0  0
    8.4660    2.0796    8.8281 C   0  0  0  0  0  0  0  0  0  0  0  0
    9.9228    2.4941    8.8414 C   0  0  0  0  0  0  0  0  0  0  0  0
   10.5165    2.3216    7.5694 O   0  0  0  0  0  0  0  0  0  0  0  0
   11.5226    1.4247    7.3385 C   0  0  0  0  0  0  0  0  0  0  0  0
   12.8244    1.8325    7.2095 C   0  0  0  0  0  0  0  0  0  0  0  0
   13.8476    0.9577    6.9798 C   0  0  0  0  0  0  0  0  0  0  0  0
   13.0633    3.1927    7.3241 O   0  0  0  0  0  0  0  0  0  0  0  0
   14.3973    3.6592    7.2651 C   0  0  0  0  0  0  0  0  0  0  0  0
   11.2346    0.0603    7.2299 C   0  0  0  0  0  0  0  0  0  0  0  0
   12.2553   -0.8372    6.9977 C   0  0  0  0  0  0  0  0  0  0  0  0
   13.5760   -0.3811    6.8717 C   0  0  0  0  0  0  0  0  0  0  0  0
   14.5378   -1.2935    6.6458 N   0  0  0  0  0  0  0  0  0  0  0  0
   14.2754   -2.6051    6.5387 C   0  0  0  0  0  0  0  0  0  0  0  0
   13.0056   -3.0082    6.6631 N   0  0  0  0  0  0  0  0  0  0  0  0
   11.9767   -2.1772    6.8891 C   0  0  0  0  0  0  0  0  0  0  0  0
   10.6559   -2.6512    6.9792 N   0  0  0  0  0  0  0  0  0  0  0  0
   10.4349   -4.0635    6.9811 C   0  0  0  0  0  0  0  0  0  0  0  0
   11.2452   -4.8723    7.7209 C   0  0  0  0  0  0  0  0  0  0  0  0
   11.0626   -6.2647    7.7202 C   0  0  0  0  0  0  0  0  0  0  0  0
   12.1162   -7.3029    8.6784 Cl  0  0  0  0  0  0  0  0  0  0  0  0
   10.0617   -6.8424    6.9732 C   0  0  0  0  0  0  0  0  0  0  0  0
    9.8646   -8.1681    6.9529 F   0  0  0  0  0  0  0  0  0  0  0  0
    9.2410   -6.0005    6.2227 C   0  0  0  0  0  0  0  0  0  0  0  0
    9.4269   -4.6361    6.2286 C   0  0  0  0  0  0  0  0  0  0  0  0
 20 19  2  0
 20 21  1  0
 18 13  1  0
 18 17  2  0
 18 19  1  0
 17 16  1  0
 17 22  1  0
 22 21  2  0
 22 23  1  0
 15 14  1  0
 30 28  1  0
 30 31  2  0
 31 24  1  0
 25 24  2  0
 25 26  1  0
 13 12  2  0
 16 11  2  0
  8  7  1  0
  8  9  1  0
  9 10  1  0
  2  1  1  0
  2  3  1  0
  4  3  1  0
  4  5  1  0
  7  6  1  0
  1  6  1  0
  5  6  1  0
 28 26  2  0
 28 29  1  0
 26 27  1  0
 24 23  1  0
 12 11  1  0
 12 14  1  0
 11 10  1  0
M  CHG  1   6   1
M  END
$$$$
