
     RDKit          3D

 31 34  0  0  0  0  0  0  0  0999 V2000
    6.3100    4.3388   10.2557 C   0  0  0  0  0  0  0  0  0  0  0  0
    5.8489    5.6643    9.7246 C   0  0  0  0  0  0  0  0  0  0  0  0
    4.5788    5.5772    9.2093 O   0  0  0  0  0  0  0  0  0  0  0  0
    4.2942    4.2853    8.8432 C   0  0  0  0  0  0  0  0  0  0  0  0
    5.4601    3.5594    8.2070 C   0  0  0  0  0  0  0  0  0  0  0  0
    6.5027    3.3607    9.1775 N   0  0  0  0  0  4  0  0  0  0  0  0
    7.8219    3.5962    8.6482 C   0  0  0  0  0  0  0  0  0  0  0  0
    8.5415    2.3690    8.1913 C   0  0  0  0  0  0  0  0  0  0  0  0
    9.9316    2.6478    7.6584 C   0  0  0  0  0  0  0  0  0  0  0  0
   10.9242    2.1028    8.5057 O   0  0  0  0  0  0  0  0  0  0  0  0
   11.8593    1.2063    8.0679 C   0  0  0  0  0  0  0  0  0  0  0  0
   13.1541    1.5867    7.8302 C   0  0  0  0  0  0  0  0  0  0  0  0
   14.1073    0.7115    7.3938 C   0  0  0  0  0  0  0  0  0  0  0  0
   13.4611    2.9193    8.0552 O   0  0  0  0  0  0  0  0  0  0  0  0
   14.8154    3.2881    8.2295 C   0  0  0  0  0  0  0  0  0  0  0  0
   11.5042   -0.1296    7.8541 C   0  0  0  0  0  0  0  0  0  0  0  0
   12.4536   -1.0270    7.4131 C   0  0  0  0  0  0  0  0  0  0  0  0
   13.7695   -0.5994    7.1811 C   0  0  0  0  0  0  0  0  0  0  0  0
   14.6606   -1.5105    6.7518 N   0  0  0  0  0  0  0  0  0  0  0  0
   14.3332   -2.7948    6.5419 C   0  0  0  0  0  0  0  0  0  0  0  0
   13.0698   -3.1711    6.7718 N   0  0  0  0  0  0  0  0  0  0  0  0
   12.1087   -2.3388    7.2007 C   0  0  0  0  0  0  0  0  0  0  0  0
   10.7880   -2.7804    7.3954 N   0  0  0  0  0  0  0  0  0  0  0  0
   10.5360   -4.1869    7.4345 C   0  0  0  0  0  0  0  0  0  0  0  0
    9.2878   -4.6568    7.1531 C   0  0  0  0  0  0  0  0  0  0  0  0
    9.0101   -6.0323    7.2080 C   0  0  0  0  0  0  0  0  0  0  0  0
    7.3928   -6.6309    6.8442 Cl  0  0  0  0  0  0  0  0  0  0  0  0
    9.9918   -6.9351    7.5467 C   0  0  0  0  0  0  0  0  0  0  0  0
    9.7552   -8.2531    7.6077 F   0  0  0  0  0  0  0  0  0  0  0  0
   11.2636   -6.4378    7.8307 C   0  0  0  0  0  0  0  0  0  0  0  0
   11.5277   -5.0875    7.7749 C   0  0  0  0  0  0  0  0  0  0  0  0
 20 19  2  0
 20 21  1  0
 18 13  1  0
 18 17  2  0
 18 19  1  0
 17 16  1  0
 17 22  1  0
 22 21  2  0
 22 23  1  0
 15 14  1  0
 30 28  1  0
 30 31  2  0
 31 24  1  0
 25 24  2  0
 25 26  1  0
 13 12  2  0
 16 11  2  0
  8  7  1  0
  8  9  1  0
  9 10  1  0
  2  1  1  0
  2  3  1  0
  4  3  1  0
  4  5  1  0
  7  6  1  0
  1  6  1  0
  5  6  1  0
 28 26  2  0
 28 29  1  0
 26 27  1  0
 24 23  1  0
 12 11  1  0
 12 14  1  0
 11 10  1  0
M  CHG  1   6   1
M  END
$$$$
